@<TRIPOS>MOLECULE
MOL
  192   187     1     0     0
SMALL
resp


@<TRIPOS>ATOM
      1 C1          4.6960    4.0720   -2.9520 c3        1 MOL     -0.349902
      2 C2          5.4450    3.0690   -1.9800 c         1 MOL      0.733143
      3 O1          4.9830    2.7210   -0.9360 o         1 MOL     -0.574026
      4 H1          3.6270    3.8620   -2.9370 hc        1 MOL      0.087337
      5 H2          4.8700    5.0960   -2.6220 hc        1 MOL      0.087337
      6 H3          5.0760    3.9470   -3.9660 hc        1 MOL      0.087337
      7 N1          6.6170    2.5970   -2.4010 n         1 MOL     -0.725222
      8 C3          7.3010    1.4450   -1.8710 c3        1 MOL      0.387961
      9 C4          6.3330    0.3260   -1.5610 c         1 MOL      0.490312
     10 O2          6.0210   -0.1120   -0.4040 o         1 MOL     -0.584010
     11 C5          8.2270    1.8010   -0.6640 c3        1 MOL     -0.296231
     12 C6          7.7880    2.8550    0.3870 c         1 MOL      0.808613
     13 O3          6.9700    2.4790    1.2460 o         1 MOL     -0.733267
     14 O4          8.3240    3.9860    0.4630 o         1 MOL     -0.733267
     15 H4          6.9170    2.9530   -3.2950 hn        1 MOL      0.328960
     16 H5          7.9070    0.9430   -2.6190 h1        1 MOL     -0.015870
     17 H6          9.1670    2.1280   -1.1000 hc        1 MOL      0.040647
     18 H7          8.4600    0.8810   -0.1190 hc        1 MOL      0.040647
     19 N2          5.7850   -0.1500   -2.7320 n         1 MOL     -0.448787
     20 C7          4.8690   -1.2630   -2.9680 c3        1 MOL      0.026244
     21 C8          5.2520   -2.6430   -2.4350 c         1 MOL      0.357970
     22 O5          5.4520   -3.5470   -3.2480 o         1 MOL     -0.552842
     23 C9          3.4370   -0.8720   -2.5010 c3        1 MOL      0.260682
     24 C10         2.4360   -1.8360   -3.1350 c3        1 MOL      0.149236
     25 C11         3.0980    0.5950   -2.9760 c3        1 MOL     -0.115675
     26 C12         2.1540   -1.7640   -4.6860 c3        1 MOL     -0.345606
     27 H8          5.8730    0.4300   -3.5560 hn        1 MOL      0.246421
     28 H9          4.7610   -1.2580   -4.0580 h1        1 MOL      0.041835
     29 H10         3.4060   -1.0730   -1.4330 hc        1 MOL     -0.221918
     30 H11         1.4510   -1.7670   -2.6660 hc        1 MOL     -0.009440
     31 H12         2.6660   -2.8640   -2.8690 hc        1 MOL     -0.009440
     32 H13         2.0300    0.7360   -3.1040 hc        1 MOL      0.009974
     33 H14         3.4960    1.2580   -2.2040 hc        1 MOL      0.009974
     34 H15         3.5280    0.9000   -3.9340 hc        1 MOL      0.009974
     35 H16         1.8670   -0.7610   -5.0060 hc        1 MOL      0.068745
     36 H17         3.0270   -2.0950   -5.2420 hc        1 MOL      0.068745
     37 H18         1.4000   -2.5320   -4.8440 hc        1 MOL      0.068745
     38 N3          5.3900   -2.8580   -1.1130 n         1 MOL      0.100760
     39 C13         5.7200   -4.0920   -0.4770 c3        1 MOL     -0.213171
     40 C14         4.6360   -5.2710   -0.5280 c         1 MOL      0.602710
     41 O6          4.9430   -6.4420   -0.6650 o         1 MOL     -0.564748
     42 C15         6.3820   -3.8480    0.9110 c3        1 MOL     -0.122834
     43 C16         7.6950   -3.0420    0.9100 c         1 MOL      0.713863
     44 O7          7.9670   -2.2560    1.8770 o         1 MOL     -0.702477
     45 O8          8.5220   -3.3450    0.0060 o         1 MOL     -0.702477
     46 H19         5.3040   -2.0190   -0.5520 hn        1 MOL      0.102862
     47 H20         6.5210   -4.5350   -1.0550 h1        1 MOL      0.093996
     48 H21         6.5140   -4.7650    1.4880 hc        1 MOL      0.035271
     49 H22         5.6540   -3.3370    1.5450 hc        1 MOL      0.035271
     50 N4          3.2890   -4.9910   -0.5850 n         1 MOL     -0.570760
     51 C17         2.6420   -3.9310    0.1400 c3        1 MOL      0.237577
     52 C18         1.4670   -4.5120    0.8900 c         1 MOL      0.399827
     53 O9          0.7950   -5.4440    0.5060 o         1 MOL     -0.534156
     54 H23         2.7350   -5.7830   -0.8760 hn        1 MOL      0.291817
     55 H24         2.3410   -3.1080   -0.5000 h1        1 MOL      0.066477
     56 H25         3.3960   -3.5780    0.8430 h1        1 MOL      0.066477
     57 N5          1.1420   -3.7630    1.9810 n         1 MOL     -0.371141
     58 C19         1.7550   -2.5650    2.5840 c3        1 MOL      0.066268
     59 C20         2.0300   -1.3700    1.5930 c         1 MOL     -0.037569
     60 O10         3.2100   -0.9470    1.5160 o         1 MOL     -0.234730
     61 C21         2.9010   -2.9280    3.5410 c3        1 MOL     -0.320427
     62 C22         3.3530   -1.7410    4.4770 c         1 MOL      0.802648
     63 O11         4.5370   -1.6720    4.8610 o         1 MOL     -0.715620
     64 O12         2.4690   -0.8930    4.9530 o         1 MOL     -0.715620
     65 H26         0.2530   -4.0030    2.3830 hn        1 MOL      0.251905
     66 H27         0.9550   -2.2290    3.2330 h1        1 MOL      0.062847
     67 H28         3.7190   -3.4450    3.0360 hc        1 MOL      0.076964
     68 H29         2.4020   -3.6630    4.1730 hc        1 MOL      0.076964
     69 N6          1.0710   -0.8600    0.8310 n         1 MOL     -0.018179
     70 C23        -0.3810   -1.1240    0.7990 c3        1 MOL      0.030101
     71 C24        -0.8380   -2.3120   -0.0080 c         1 MOL      0.364592
     72 O13        -0.1710   -2.7270   -0.9650 o         1 MOL     -0.371893
     73 H30         1.4010   -0.1540    0.1950 hn        1 MOL      0.084610
     74 H31        -0.8510   -0.2340    0.3860 h1        1 MOL      0.045365
     75 H32        -0.8920   -1.0620    1.7610 h1        1 MOL      0.045365
     76 N7         -2.0530   -2.7790    0.3200 n         1 MOL     -0.456453
     77 C25        -2.7650   -3.8040   -0.4070 c3        1 MOL     -0.007734
     78 C26        -3.0980   -3.4820   -1.8500 c         1 MOL      0.334370
     79 O14        -2.9940   -4.4040   -2.6350 o         1 MOL     -0.480878
     80 C27        -4.1040   -4.0380    0.2750 c3        1 MOL      0.059738
     81 C28        -4.1080   -4.5240    1.7810 c3        1 MOL     -0.270066
     82 C29        -5.5310   -4.6970    2.3480 c         1 MOL      0.644870
     83 N8         -5.6250   -5.4410    3.4300 n         1 MOL     -0.785187
     84 O15        -6.5500   -4.1810    1.8840 o         1 MOL     -0.536102
     85 H33        -2.5280   -2.2140    1.0060 hn        1 MOL      0.279246
     86 H34        -2.1590   -4.7050   -0.2780 h1        1 MOL      0.146390
     87 H35        -4.6260   -4.7630   -0.3470 hc        1 MOL      0.027051
     88 H36        -4.7760   -3.1830    0.2710 hc        1 MOL      0.027051
     89 H37        -3.6180   -3.7970    2.4170 hc        1 MOL      0.090900
     90 H38        -3.5440   -5.4610    1.8530 hc        1 MOL      0.090900
     91 H39        -4.8570   -6.0100    3.7590 hn        1 MOL      0.365328
     92 H40        -6.5150   -5.5870    3.8840 hn        1 MOL      0.365328
     93 N9         -3.5440   -2.2650   -2.1480 n         1 MOL     -0.198090
     94 C30        -3.9030   -1.7680   -3.5010 c3        1 MOL     -0.307715
     95 C31        -5.2820   -1.0460   -3.3820 c         1 MOL      0.460518
     96 O16        -5.9090   -0.5130   -4.2750 o         1 MOL     -0.489287
     97 C32        -2.8010   -0.9420   -4.2040 c3        1 MOL      0.305416
     98 C33        -1.6960   -1.8530   -4.8160 c3        1 MOL     -0.299473
     99 C34        -2.1650    0.2100   -3.4080 c3        1 MOL     -0.299473
    100 H41        -3.6570   -1.6580   -1.3500 hn        1 MOL      0.238641
    101 H42        -4.1700   -2.6090   -4.1410 h1        1 MOL      0.196168
    102 H43        -3.3130   -0.4520   -5.0390 hc        1 MOL     -0.021732
    103 H44        -0.9630   -1.2670   -5.3780 hc        1 MOL      0.080432
    104 H45        -1.2810   -2.3840   -3.9610 hc        1 MOL      0.080432
    105 H46        -2.1490   -2.6420   -5.4160 hc        1 MOL      0.080432
    106 H47        -2.8680    0.8950   -2.9510 hc        1 MOL      0.080432
    107 H48        -1.5610   -0.1190   -2.5610 hc        1 MOL      0.080432
    108 H49        -1.5210    0.7360   -4.1220 hc        1 MOL      0.080432
    109 N10        -5.9360   -1.1320   -2.1550 n         1 MOL     -0.250224
    110 C35        -7.2420   -0.5710   -1.8130 c3        1 MOL      0.040666
    111 C36        -7.1500    0.8560   -1.2750 c         1 MOL      0.483464
    112 O17        -8.1800    1.5290   -1.3340 o         1 MOL     -0.540010
    113 C37        -8.0100   -1.5880   -0.9780 c3        1 MOL     -0.189983
    114 C38        -8.0050   -2.9480   -1.6380 c         1 MOL      0.629713
    115 N11        -7.5060   -3.9640   -0.9770 n         1 MOL     -0.792110
    116 O18        -8.6950   -3.0750   -2.6590 o         1 MOL     -0.573243
    117 H50        -5.4770   -1.6490   -1.4200 hn        1 MOL      0.149955
    118 H51        -7.7850   -0.4680   -2.7540 h1        1 MOL      0.090509
    119 H52        -9.0410   -1.2410   -0.9340 hc        1 MOL      0.079982
    120 H53        -7.6170   -1.6720    0.0320 hc        1 MOL      0.079982
    121 H54        -7.2380   -3.7860   -0.0160 hn        1 MOL      0.369028
    122 H55        -7.6330   -4.8800   -1.3930 hn        1 MOL      0.369028
    123 N12        -6.0190    1.3230   -0.7670 n         1 MOL     -0.401947
    124 C39        -5.9580    2.6900   -0.2590 c3        1 MOL      0.257449
    125 C40        -4.4990    3.1940    0.0030 c         1 MOL      0.278031
    126 O19        -3.5340    2.4020   -0.1690 o         1 MOL     -0.423885
    127 C41        -6.8790    2.8230    0.8970 c3        1 MOL     -0.290268
    128 C42        -7.0980    1.6410    1.8480 ca        1 MOL      0.030221
    129 C43        -8.2670    0.8890    1.7490 ca        1 MOL     -0.081550
    130 C44        -6.0790    1.1420    2.6450 ca        1 MOL     -0.081550
    131 C45        -8.4100   -0.3300    2.4440 ca        1 MOL     -0.297122
    132 C46        -6.1800   -0.0970    3.3350 ca        1 MOL     -0.297122
    133 C47        -7.3790   -0.8990    3.2030 ca        1 MOL      0.328849
    134 O20        -7.4750   -2.1560    3.7320 oh        1 MOL     -0.521282
    135 H56        -5.2850    0.6510   -0.6060 hn        1 MOL      0.236263
    136 H57        -6.4210    3.2480   -1.0780 h1        1 MOL      0.058021
    137 H58        -7.8100    3.1820    0.4500 hc        1 MOL      0.095759
    138 H59        -6.5310    3.6390    1.5450 hc        1 MOL      0.095759
    139 H60        -9.0470    1.1650    1.0540 ha        1 MOL      0.118320
    140 H61        -5.1500    1.6870    2.6970 ha        1 MOL      0.118320
    141 H62        -9.2290   -0.9770    2.1590 ha        1 MOL      0.146533
    142 H63        -5.3340   -0.5410    3.8310 ha        1 MOL      0.146533
    143 H64        -6.6650   -2.3570    4.2140 ho        1 MOL      0.401286
    144 N13        -4.4500    4.5010    0.4310 n         1 MOL     -0.650375
    145 C48        -3.2580    5.0960    1.0350 c3        1 MOL      0.353903
    146 C49        -1.9410    5.3210    0.2340 c         1 MOL      0.493748
    147 O21        -1.2710    6.2840    0.5740 o         1 MOL     -0.548437
    148 C50        -3.1100    4.3800    2.4560 c3        1 MOL      0.012633
    149 C51        -2.1370    5.0800    3.4160 c3        1 MOL     -0.351057
    150 C52        -2.0060    4.3570    4.7680 c         1 MOL      0.777043
    151 O22        -2.2490    3.1690    4.8300 o         1 MOL     -0.745517
    152 O23        -1.6880    5.0070    5.7580 o         1 MOL     -0.745517
    153 H65        -5.3420    4.9610    0.4440 hn        1 MOL      0.333832
    154 H66        -3.4980    6.1260    1.3030 h1        1 MOL     -0.026381
    155 H67        -2.7200    3.3900    2.2030 hc        1 MOL      0.047175
    156 H68        -4.0570    4.4580    2.9960 hc        1 MOL      0.047175
    157 H69        -2.3880    6.1260    3.5780 hc        1 MOL      0.064406
    158 H70        -1.1510    5.0820    2.9450 hc        1 MOL      0.064406
    159 N14        -1.6810    4.5130   -0.7890 n         1 MOL     -0.522331
    160 C53        -0.4540    4.5720   -1.6250 c3        1 MOL     -0.043912
    161 C54        -0.5700    5.6100   -2.7820 c         1 MOL      0.424683
    162 O24         0.3610    5.7100   -3.6080 o         1 MOL     -0.532203
    163 C55         0.0600    3.2270   -2.0980 c3        1 MOL     -0.103468
    164 C56         0.3550    2.2800   -0.8950 c3        1 MOL      0.472071
    165 C57         1.6020    2.6350   -0.0500 c         1 MOL      0.560122
    166 O25         2.3890    1.6630    0.3510 o         1 MOL     -0.627917
    167 O26         1.6860    3.8480    0.4080 o         1 MOL     -0.627917
    168 H71        -2.1930    3.6510   -0.6910 hn        1 MOL      0.324569
    169 H72         0.2750    5.1320   -1.0420 h1        1 MOL      0.160661
    170 H73         1.0150    3.3400   -2.6120 hc        1 MOL      0.017654
    171 H74        -0.6400    2.6710   -2.7110 hc        1 MOL      0.017654
    172 H75         0.4660    1.3060   -1.3770 hc        1 MOL     -0.140670
    173 H76        -0.5150    2.2330   -0.2460 hc        1 MOL     -0.140670
    174 N15        -1.7440    6.2220   -2.8960 n         1 MOL     -0.171745
    175 C58        -2.2180    7.0470   -4.0170 c3        1 MOL     -0.188064
    176 H77        -3.3060    7.0010   -4.0660 h1        1 MOL      0.081984
    177 H78        -1.9050    8.0800   -3.8670 h1        1 MOL      0.081984
    178 H79        -1.7960    6.6710   -4.9500 h1        1 MOL      0.081984
    179 H80        -2.3670    6.0730   -2.1160 hn        1 MOL      0.188066
    180 Ca1         4.6220    1.3390    1.4090 Ca        1 MOL      1.749504
    181 O27         5.4910    2.1420    3.9030 oh        1 MOL     -0.861211
    182 H81         4.7960    1.9450    4.5400 ho        1 MOL      0.409500
    183 H82         6.2100    2.4830    4.4300 ho        1 MOL      0.409500
    184 O28         5.8730   -0.5820    2.6290 oh        1 MOL     -0.861211
    185 H83         6.6340   -1.0780    2.3130 ho        1 MOL      0.409500
    186 H84         5.7980   -0.8300    3.5470 ho        1 MOL      0.409500
    187 O29         2.6860    1.2800    3.3230 oh        1 MOL     -0.861211
    188 H85         1.8460    1.7290    3.3700 ho        1 MOL      0.409500
    189 H86         2.5900    0.5310    3.9130 ho        1 MOL      0.409500
    190 O30         3.8520    3.8620    1.9890 oh        1 MOL     -0.861211
    191 H87         3.3050    4.2760    1.3160 ho        1 MOL      0.409500
    192 H88         3.5320    4.2100    2.8190 ho        1 MOL      0.409500
@<TRIPOS>BOND
     1    1    2 1   
     2    1    4 1   
     3    1    5 1   
     4    1    6 1   
     5    2    3 2   
     6    2    7 1   
     7    7    8 1   
     8    7   15 1   
     9    8    9 1   
    10    8   11 1   
    11    8   16 1   
    12    9   10 2   
    13    9   19 1   
    14   11   12 1   
    15   11   17 1   
    16   11   18 1   
    17   12   13 1   
    18   12   14 1   
    19   19   20 1   
    20   19   27 1   
    21   20   21 1   
    22   20   23 1   
    23   20   28 1   
    24   21   22 2   
    25   21   38 1   
    26   23   24 1   
    27   23   25 1   
    28   23   29 1   
    29   24   26 1   
    30   24   30 1   
    31   24   31 1   
    32   25   32 1   
    33   25   33 1   
    34   25   34 1   
    35   26   35 1   
    36   26   36 1   
    37   26   37 1   
    38   38   39 1   
    39   38   46 1   
    40   39   40 1   
    41   39   42 1   
    42   39   47 1   
    43   40   41 2   
    44   40   50 1   
    45   42   43 1   
    46   42   48 1   
    47   42   49 1   
    48   43   44 1   
    49   43   45 1   
    50   50   51 1   
    51   50   54 1   
    52   51   52 1   
    53   51   55 1   
    54   51   56 1   
    55   52   53 2   
    56   52   57 1   
    57   57   58 1   
    58   57   65 1   
    59   58   59 1   
    60   58   61 1   
    61   58   66 1   
    62   59   60 2   
    63   59   69 1   
    64   61   62 1   
    65   61   67 1   
    66   61   68 1   
    67   62   63 1   
    68   62   64 1   
    69   69   70 1   
    70   69   73 1   
    71   70   71 1   
    72   70   74 1   
    73   70   75 1   
    74   71   72 2   
    75   71   76 1   
    76   76   77 1   
    77   76   85 1   
    78   77   78 1   
    79   77   80 1   
    80   77   86 1   
    81   78   79 2   
    82   78   93 1   
    83   80   81 1   
    84   80   87 1   
    85   80   88 1   
    86   81   82 1   
    87   81   89 1   
    88   81   90 1   
    89   82   83 1   
    90   82   84 2   
    91   83   91 1   
    92   83   92 1   
    93   93   94 1   
    94   93  100 1   
    95   94   95 1   
    96   94   97 1   
    97   94  101 1   
    98   95   96 2   
    99   95  109 1   
   100   97   98 1   
   101   97   99 1   
   102   97  102 1   
   103   98  103 1   
   104   98  104 1   
   105   98  105 1   
   106   99  106 1   
   107   99  107 1   
   108   99  108 1   
   109  109  110 1   
   110  109  117 1   
   111  110  111 1   
   112  110  113 1   
   113  110  118 1   
   114  111  112 2   
   115  111  123 1   
   116  113  114 1   
   117  113  119 1   
   118  113  120 1   
   119  114  115 1   
   120  114  116 2   
   121  115  121 1   
   122  115  122 1   
   123  123  124 1   
   124  123  135 1   
   125  124  125 1   
   126  124  127 1   
   127  124  136 1   
   128  125  126 2   
   129  125  144 1   
   130  127  128 1   
   131  127  137 1   
   132  127  138 1   
   133  128  129 ar  
   134  128  130 ar  
   135  129  131 ar  
   136  129  139 1   
   137  130  132 ar  
   138  130  140 1   
   139  131  133 ar  
   140  131  141 1   
   141  132  133 ar  
   142  132  142 1   
   143  133  134 1   
   144  134  143 1   
   145  144  145 1   
   146  144  153 1   
   147  145  146 1   
   148  145  148 1   
   149  145  154 1   
   150  146  147 2   
   151  146  159 1   
   152  148  149 1   
   153  148  155 1   
   154  148  156 1   
   155  149  150 1   
   156  149  157 1   
   157  149  158 1   
   158  150  151 1   
   159  150  152 1   
   160  159  160 1   
   161  159  168 1   
   162  160  161 1   
   163  160  163 1   
   164  160  169 1   
   165  161  162 2   
   166  161  174 1   
   167  163  164 1   
   168  163  170 1   
   169  163  171 1   
   170  164  165 1   
   171  164  172 1   
   172  164  173 1   
   173  165  166 1   
   174  165  167 1   
   175  174  175 1   
   176  174  179 1   
   177  175  176 1   
   178  175  177 1   
   179  175  178 1   
   180  181  182 1   
   181  181  183 1   
   182  184  185 1   
   183  184  186 1   
   184  187  188 1   
   185  187  189 1   
   186  190  191 1   
   187  190  192 1   
@<TRIPOS>SUBSTRUCTURE
     1 MOL         1 TEMP              0 ****  ****    0 ROOT
