@<TRIPOS>MOLECULE
MOL
  188   182     1     0     0
SMALL
resp


@<TRIPOS>ATOM
      1 C1          5.8030    1.1380    5.4180 c3        1 MOL     -0.398056
      2 C2          5.0830    0.9420    4.0160 c         1 MOL      0.611930
      3 O1          4.0150    0.3870    3.7860 o         1 MOL     -0.588418
      4 H1          5.9980    0.1630    5.8660 hc        1 MOL      0.096932
      5 H2          6.7460    1.6660    5.2730 hc        1 MOL      0.096932
      6 H3          5.1590    1.7190    6.0790 hc        1 MOL      0.096932
      7 N1          5.8790    1.3520    3.0520 n         1 MOL     -0.283431
      8 C3          5.4980    1.1920    1.6630 c3        1 MOL     -0.075723
      9 C4          5.4950   -0.1990    1.0860 c         1 MOL      0.452496
     10 O2          4.6720   -0.4450    0.2080 o         1 MOL     -0.539537
     11 C5          6.2770    2.0110    0.7440 c3        1 MOL     -0.076711
     12 C6          7.8280    1.9570    0.9370 c         1 MOL      0.648713
     13 O3          8.3930    0.9250    1.4860 o         1 MOL     -0.636071
     14 O4          8.5180    2.9750    0.5720 o         1 MOL     -0.636071
     15 H4          6.7980    1.7460    3.2060 hn        1 MOL      0.233526
     16 H5          4.4920    1.6010    1.5360 h1        1 MOL      0.110196
     17 H6          5.9450    3.0460    0.8770 hc        1 MOL      0.022718
     18 H7          6.0850    1.7420   -0.2950 hc        1 MOL      0.022718
     19 N2          6.2310   -1.2120    1.5950 n         1 MOL     -0.250080
     20 C7          5.9470   -2.6440    1.5650 c3        1 MOL      0.028334
     21 C8          6.2590   -3.2730    0.2230 c         1 MOL      0.397364
     22 O5          7.4210   -3.3750   -0.2030 o         1 MOL     -0.512903
     23 C9          6.7550   -3.3110    2.6530 c3        1 MOL     -0.280521
     24 C10         6.2730   -3.1700    4.1030 c3        1 MOL      0.394856
     25 C11         7.1100   -3.8990    5.1510 c3        1 MOL     -0.213413
     26 C12         7.0180   -5.4350    4.8540 c3        1 MOL      0.278204
     27 N3          7.2050   -6.3890    6.0400 n4        1 MOL     -0.427534
     28 H8          7.0150   -0.9140    2.1540 hn        1 MOL      0.173529
     29 H9          4.8810   -2.8180    1.7570 h1        1 MOL      0.087598
     30 H10         7.7550   -2.8830    2.6430 hc        1 MOL      0.102274
     31 H11         6.8740   -4.3530    2.3480 hc        1 MOL      0.102274
     32 H12         5.2910   -3.6440    4.1380 hc        1 MOL     -0.089759
     33 H13         6.0610   -2.1090    4.2340 hc        1 MOL     -0.089759
     34 H14         6.6940   -3.7670    6.1490 hc        1 MOL      0.059412
     35 H15         8.1670   -3.6390    5.1090 hc        1 MOL      0.059412
     36 H16         7.7680   -5.7070    4.1120 hx        1 MOL      0.004559
     37 H17         6.0450   -5.6260    4.3940 hx        1 MOL      0.004559
     38 H18         8.1730   -6.6180    6.1870 hn        1 MOL      0.303142
     39 H19         6.8290   -6.0120    6.9050 hn        1 MOL      0.303142
     40 H20         6.6440   -7.2280    6.0180 hn        1 MOL      0.303142
     41 N4          5.1880   -3.7620   -0.4340 n         1 MOL     -0.254503
     42 C13         5.2160   -3.9780   -1.9170 c3        1 MOL      0.091827
     43 C14         5.0320   -2.7280   -2.8020 c         1 MOL      0.343329
     44 O6          4.5150   -2.7650   -3.9210 o         1 MOL     -0.485434
     45 C15         4.1270   -4.9910   -2.2270 c3        1 MOL     -0.319411
     46 C16         2.7700   -4.5960   -1.6610 c         1 MOL      0.675085
     47 O7          1.9670   -3.9400   -2.3930 o         1 MOL     -0.675584
     48 O8          2.3630   -4.9460   -0.5280 o         1 MOL     -0.675584
     49 H21         4.2620   -3.6830   -0.0400 hn        1 MOL      0.115169
     50 H22         6.1240   -4.5610   -2.0610 h1        1 MOL      0.104412
     51 H23         4.4300   -5.9110   -1.7260 hc        1 MOL      0.095283
     52 H24         3.9990   -5.0120   -3.3100 hc        1 MOL      0.095283
     53 N5          5.2820   -1.5690   -2.2450 n         1 MOL     -0.290889
     54 C17         5.0410   -0.2380   -2.7820 c3        1 MOL      0.114168
     55 C18         6.0990    0.2200   -3.8200 c         1 MOL      0.546185
     56 O9          7.1320   -0.4070   -4.0600 o         1 MOL     -0.524235
     57 H25         5.6340   -1.5820   -1.2990 hn        1 MOL      0.282420
     58 H26         4.9490    0.3730   -1.8830 h1        1 MOL      0.050328
     59 H27         4.1230   -0.1710   -3.3660 h1        1 MOL      0.050328
     60 N6          5.8860    1.4070   -4.4090 n         1 MOL     -0.564656
     61 C19         4.7930    2.3550   -4.2150 c3        1 MOL      0.231198
     62 C20         5.1830    3.5180   -3.2350 c         1 MOL      0.498760
     63 O10         6.3540    3.9410   -3.2240 o         1 MOL     -0.497832
     64 C21         4.3210    2.8240   -5.5900 c3        1 MOL     -0.323244
     65 C22         3.3650    4.0500   -5.5370 c         1 MOL      0.671765
     66 N7          2.2080    3.8340   -6.0990 n         1 MOL     -0.773668
     67 O11         3.7190    5.1300   -5.0900 o         1 MOL     -0.537840
     68 H28         6.6390    1.6630   -5.0480 hn        1 MOL      0.329631
     69 H29         3.9440    1.8300   -3.7850 h1        1 MOL      0.033780
     70 H30         3.7990    2.0180   -6.1080 hc        1 MOL      0.098338
     71 H31         5.2190    3.1210   -6.1300 hc        1 MOL      0.098338
     72 H32         1.9200    2.9680   -6.5280 hn        1 MOL      0.359242
     73 H33         1.5810    4.6390   -6.1290 hn        1 MOL      0.359242
     74 N8          4.3030    3.9140   -2.3040 n         1 MOL     -0.486824
     75 C23         2.8750    3.5230   -2.1650 c3        1 MOL      0.071839
     76 C24         2.2050    4.2060   -0.9110 c         1 MOL      0.646281
     77 O12         2.8590    4.6210    0.0550 o         1 MOL     -0.517426
     78 H34         4.6670    4.6280   -1.6880 hn        1 MOL      0.303074
     79 H35         2.8700    2.4400   -2.0430 h1        1 MOL      0.004030
     80 H36         2.2790    3.8470   -3.0280 h1        1 MOL      0.004030
     81 N9          0.8620    4.2490   -0.9010 n         1 MOL     -0.594195
     82 C25        -0.0490    4.8030    0.1160 c3        1 MOL      0.233048
     83 C26        -1.2260    3.9650    0.3130 c         1 MOL      0.533105
     84 O13        -1.5130    3.1240   -0.5400 o         1 MOL     -0.484610
     85 C27        -0.4190    6.2500   -0.3050 c3        1 MOL     -0.291217
     86 C28        -1.0880    7.0440    0.7530 ca        1 MOL      0.014971
     87 C29        -2.5080    7.0870    0.8560 ca        1 MOL     -0.068172
     88 C30        -0.3410    7.6190    1.7680 ca        1 MOL     -0.068172
     89 C31        -3.0990    7.6170    2.0070 ca        1 MOL     -0.380159
     90 C32        -0.9360    8.1910    2.9290 ca        1 MOL     -0.380159
     91 C33        -2.3650    8.1350    3.0760 ca        1 MOL      0.504701
     92 O14        -2.8700    8.7120    4.1760 oh        1 MOL     -0.530599
     93 H37         0.4460    3.6510   -1.6030 hn        1 MOL      0.275846
     94 H38         0.4120    4.9100    1.0990 h1        1 MOL      0.025808
     95 H39        -1.0660    6.2310   -1.1870 hc        1 MOL      0.120913
     96 H40         0.5250    6.7350   -0.5730 hc        1 MOL      0.120913
     97 H41        -3.1190    6.7440    0.0390 ha        1 MOL      0.130354
     98 H42         0.7240    7.4430    1.8110 ha        1 MOL      0.130354
     99 H43        -4.1720    7.6380    2.1310 ha        1 MOL      0.157165
    100 H44        -0.3880    8.6080    3.7620 ha        1 MOL      0.157165
    101 H45        -2.1850    8.7850    4.8410 ho        1 MOL      0.374344
    102 N10        -2.0130    4.0770    1.4090 n         1 MOL     -0.497076
    103 C34        -3.1700    3.1270    1.5730 c3        1 MOL     -0.068988
    104 C35        -4.2560    3.2880    0.4710 c         1 MOL      0.547738
    105 O15        -4.3050    4.3570   -0.1960 o         1 MOL     -0.489854
    106 C36        -3.6380    3.2240    3.0710 c3        1 MOL      0.166728
    107 C37        -2.6830    2.5590    4.0880 c3        1 MOL      0.043041
    108 C38        -3.9240    4.6560    3.4480 c3        1 MOL      0.052302
    109 C39        -2.9770    2.8370    5.5450 c3        1 MOL     -0.091010
    110 H46        -1.8390    4.8220    2.0760 hn        1 MOL      0.278964
    111 H47        -2.7930    2.1100    1.4580 h1        1 MOL      0.068913
    112 H48        -4.5690    2.6640    3.0930 hc        1 MOL     -0.034956
    113 H49        -1.6470    2.8100    3.8990 hc        1 MOL     -0.001795
    114 H50        -2.7430    1.4780    3.9290 hc        1 MOL     -0.001795
    115 H51        -3.0620    5.3160    3.4970 hc        1 MOL     -0.016925
    116 H52        -4.6750    5.1250    2.8040 hc        1 MOL     -0.016925
    117 H53        -4.4230    4.6320    4.4170 hc        1 MOL     -0.016925
    118 H54        -2.8280    3.9170    5.6810 hc        1 MOL      0.017299
    119 H55        -4.0240    2.6190    5.7750 hc        1 MOL      0.017299
    120 H56        -2.3090    2.2770    6.1950 hc        1 MOL      0.017299
    121 N11        -5.0800    2.2500    0.2470 n         1 MOL     -0.419134
    122 C40        -6.1890    2.2660   -0.7590 c3        1 MOL     -0.054288
    123 C41        -6.4250    0.8100   -1.2650 c         1 MOL      0.667598
    124 O16        -6.1060   -0.2480   -0.6540 o         1 MOL     -0.483406
    125 C42        -7.4170    2.9300   -0.1200 c3        1 MOL      0.081730
    126 O17        -7.9390    2.1700    0.9270 oh        1 MOL     -0.600659
    127 H57        -4.7780    1.3700    0.6490 hn        1 MOL      0.266782
    128 H58        -5.8850    2.9310   -1.5670 h1        1 MOL      0.073374
    129 H59        -8.1740    3.3220   -0.8040 h1        1 MOL      0.055315
    130 H60        -6.9420    3.7520    0.4260 h1        1 MOL      0.055315
    131 H61        -8.4030    2.7500    1.5350 ho        1 MOL      0.417540
    132 N12        -7.0680    0.8810   -2.4490 n         1 MOL     -0.510453
    133 C43        -7.2350   -0.2750   -3.3610 c3        1 MOL      0.089149
    134 C44        -8.1350   -1.4450   -2.8220 c         1 MOL      0.483900
    135 O18        -8.0200   -2.6010   -3.2490 o         1 MOL     -0.479150
    136 C45        -5.8550   -0.6250   -3.9230 c3        1 MOL     -0.324951
    137 H62        -7.5750    1.7190   -2.7000 hn        1 MOL      0.306589
    138 H63        -7.8870    0.0690   -4.1660 h1        1 MOL      0.095373
    139 H64        -5.3640    0.2580   -4.3510 hc        1 MOL      0.109446
    140 H65        -5.1960   -1.0760   -3.1850 hc        1 MOL      0.109446
    141 H66        -5.9920   -1.3660   -4.6990 hc        1 MOL      0.109446
    142 N13        -9.0290   -1.1560   -1.8390 n         1 MOL     -0.594514
    143 C46        -9.7520   -2.1580   -0.9990 c3        1 MOL      0.371261
    144 C47        -8.8910   -3.1370   -0.2350 c         1 MOL      0.233147
    145 O19        -9.3500   -4.1590    0.0830 o         1 MOL     -0.458490
    146 C48       -10.7850   -2.9200   -1.8810 c3        1 MOL     -0.328816
    147 H67        -8.9840   -0.1790   -1.5910 hn        1 MOL      0.277686
    148 H68       -10.3010   -1.5930   -0.2440 h1        1 MOL      0.016101
    149 H69       -11.5920   -3.2530   -1.2290 hc        1 MOL      0.094929
    150 H70       -11.3390   -2.2870   -2.5740 hc        1 MOL      0.094929
    151 H71       -10.3350   -3.7750   -2.3850 hc        1 MOL      0.094929
    152 N14        -7.6300   -2.8800   -0.0880 n         1 MOL      0.021074
    153 C49        -6.6720   -3.7690    0.6330 c3        1 MOL     -0.413408
    154 C50        -6.9890   -4.0410    2.0940 c         1 MOL      0.552319
    155 O20        -7.0490   -5.1990    2.4450 o         1 MOL     -0.505558
    156 C51        -5.2560   -3.1770    0.3970 c3        1 MOL      0.313829
    157 C52        -4.1570   -4.0980    0.9230 c3        1 MOL     -0.295080
    158 C53        -2.8840   -4.0170    0.1710 c         1 MOL      0.671053
    159 O21        -2.6850   -4.9300   -0.6510 o         1 MOL     -0.690580
    160 O22        -2.0820   -3.1590    0.4430 o         1 MOL     -0.690580
    161 H72        -7.3320   -1.9360   -0.2720 hn        1 MOL      0.066764
    162 H73        -6.7340   -4.7260    0.1180 h1        1 MOL      0.210739
    163 H74        -5.1660   -2.2170    0.9060 hc        1 MOL     -0.023203
    164 H75        -5.1460   -3.0330   -0.6700 hc        1 MOL     -0.023203
    165 H76        -4.5490   -5.1120    0.9590 hc        1 MOL      0.044744
    166 H77        -3.9990   -3.7440    1.9490 hc        1 MOL      0.044744
    167 N15        -7.3510   -3.0210    2.8860 n         1 MOL     -0.291568
    168 C54        -7.6940   -3.1390    4.3030 c3        1 MOL     -0.131986
    169 H78        -7.3920   -4.1200    4.6690 h1        1 MOL      0.078168
    170 H79        -7.1750   -2.3660    4.8690 h1        1 MOL      0.078168
    171 H80        -8.7700   -3.0200    4.4270 h1        1 MOL      0.078168
    172 H81        -7.3700   -2.0780    2.5200 hn        1 MOL      0.238432
    173 Ca1        -0.0960   -4.4080   -0.7460 Ca        1 MOL      1.534155
    174 O23         0.2560   -1.7610   -0.9180 oh        1 MOL     -0.749342
    175 H82         1.1030   -1.9800   -0.5260 ho        1 MOL      0.383151
    176 H83         0.1960   -0.8080   -0.8510 ho        1 MOL      0.383151
    177 O24         0.3560   -3.9760    1.9620 oh        1 MOL     -0.749342
    178 H84         1.1960   -4.1420    2.3850 ho        1 MOL      0.383151
    179 H85        -0.2030   -3.6220    2.6530 ho        1 MOL      0.383151
    180 O25        -0.3870   -6.7310    0.3850 oh        1 MOL     -0.749342
    181 H86        -1.2590   -7.1340    0.4700 ho        1 MOL      0.383151
    182 H87         0.0780   -7.0000    1.1700 ho        1 MOL      0.383151
    183 O26        -0.3420   -5.9820   -2.9080 oh        1 MOL     -0.749342
    184 H88         0.1900   -6.2140   -3.6680 ho        1 MOL      0.383151
    185 H89        -1.0400   -6.6330   -2.8940 ho        1 MOL      0.383151
    186 O27        -1.6330   -3.2090   -2.9610 oh        1 MOL     -0.749342
    187 H90        -2.1490   -3.8840   -3.4040 ho        1 MOL      0.383151
    188 H91        -2.2880   -2.5840   -2.6440 ho        1 MOL      0.383151
@<TRIPOS>BOND
     1    1    2 1   
     2    1    4 1   
     3    1    5 1   
     4    1    6 1   
     5    2    3 2   
     6    2    7 1   
     7    7    8 1   
     8    7   15 1   
     9    8    9 1   
    10    8   11 1   
    11    8   16 1   
    12    9   10 2   
    13    9   19 1   
    14   11   12 1   
    15   11   17 1   
    16   11   18 1   
    17   12   13 1   
    18   12   14 1   
    19   19   20 1   
    20   19   28 1   
    21   20   21 1   
    22   20   23 1   
    23   20   29 1   
    24   21   22 2   
    25   21   41 1   
    26   23   24 1   
    27   23   30 1   
    28   23   31 1   
    29   24   25 1   
    30   24   32 1   
    31   24   33 1   
    32   25   26 1   
    33   25   34 1   
    34   25   35 1   
    35   26   27 1   
    36   26   36 1   
    37   26   37 1   
    38   27   38 1   
    39   27   39 1   
    40   27   40 1   
    41   41   42 1   
    42   41   49 1   
    43   42   43 1   
    44   42   45 1   
    45   42   50 1   
    46   43   44 2   
    47   43   53 1   
    48   45   46 1   
    49   45   51 1   
    50   45   52 1   
    51   46   47 1   
    52   46   48 1   
    53   53   54 1   
    54   53   57 1   
    55   54   55 1   
    56   54   58 1   
    57   54   59 1   
    58   55   56 2   
    59   55   60 1   
    60   60   61 1   
    61   60   68 1   
    62   61   62 1   
    63   61   64 1   
    64   61   69 1   
    65   62   63 2   
    66   62   74 1   
    67   64   65 1   
    68   64   70 1   
    69   64   71 1   
    70   65   66 1   
    71   65   67 2   
    72   66   72 1   
    73   66   73 1   
    74   74   75 1   
    75   74   78 1   
    76   75   76 1   
    77   75   79 1   
    78   75   80 1   
    79   76   77 2   
    80   76   81 1   
    81   81   82 1   
    82   81   93 1   
    83   82   83 1   
    84   82   85 1   
    85   82   94 1   
    86   83   84 2   
    87   83  102 1   
    88   85   86 1   
    89   85   95 1   
    90   85   96 1   
    91   86   87 ar  
    92   86   88 ar  
    93   87   89 ar  
    94   87   97 1   
    95   88   90 ar  
    96   88   98 1   
    97   89   91 ar  
    98   89   99 1   
    99   90   91 ar  
   100   90  100 1   
   101   91   92 1   
   102   92  101 1   
   103  102  103 1   
   104  102  110 1   
   105  103  104 1   
   106  103  106 1   
   107  103  111 1   
   108  104  105 2   
   109  104  121 1   
   110  106  107 1   
   111  106  108 1   
   112  106  112 1   
   113  107  109 1   
   114  107  113 1   
   115  107  114 1   
   116  108  115 1   
   117  108  116 1   
   118  108  117 1   
   119  109  118 1   
   120  109  119 1   
   121  109  120 1   
   122  121  122 1   
   123  121  127 1   
   124  122  123 1   
   125  122  125 1   
   126  122  128 1   
   127  123  124 2   
   128  123  132 1   
   129  125  126 1   
   130  125  129 1   
   131  125  130 1   
   132  126  131 1   
   133  132  133 1   
   134  132  137 1   
   135  133  134 1   
   136  133  136 1   
   137  133  138 1   
   138  134  135 2   
   139  134  142 1   
   140  136  139 1   
   141  136  140 1   
   142  136  141 1   
   143  142  143 1   
   144  142  147 1   
   145  143  144 1   
   146  143  146 1   
   147  143  148 1   
   148  144  145 2   
   149  144  152 1   
   150  146  149 1   
   151  146  150 1   
   152  146  151 1   
   153  152  153 1   
   154  152  161 1   
   155  153  154 1   
   156  153  156 1   
   157  153  162 1   
   158  154  155 2   
   159  154  167 1   
   160  156  157 1   
   161  156  163 1   
   162  156  164 1   
   163  157  158 1   
   164  157  165 1   
   165  157  166 1   
   166  158  159 1   
   167  158  160 1   
   168  167  168 1   
   169  167  172 1   
   170  168  169 1   
   171  168  170 1   
   172  168  171 1   
   173  174  175 1   
   174  174  176 1   
   175  177  178 1   
   176  177  179 1   
   177  180  181 1   
   178  180  182 1   
   179  183  184 1   
   180  183  185 1   
   181  186  187 1   
   182  186  188 1   
@<TRIPOS>SUBSTRUCTURE
     1 MOL         1 TEMP              0 ****  ****    0 ROOT
