@<TRIPOS>MOLECULE
MOL
  175   173     1     0     0
SMALL
resp


@<TRIPOS>ATOM
      1 C1         -7.7030    7.3470    1.8750 c3        1 MOL     -0.434422
      2 C2         -8.5430    6.5620    0.8600 c         1 MOL      0.796762
      3 O1         -8.7360    7.0040   -0.2340 o         1 MOL     -0.589848
      4 H1         -8.3440    7.6990    2.6830 hc        1 MOL      0.098856
      5 H2         -6.9280    6.6980    2.2840 hc        1 MOL      0.098856
      6 H3         -7.2400    8.2010    1.3820 hc        1 MOL      0.098856
      7 N1         -9.0850    5.4040    1.2350 n         1 MOL     -0.661680
      8 C3         -9.9500    4.5860    0.3810 c3        1 MOL      0.326850
      9 C4         -9.2280    3.3530   -0.2340 c         1 MOL      0.458843
     10 O2         -9.8210    2.2650   -0.3580 o         1 MOL     -0.496281
     11 C5        -11.2450    4.3290    1.1260 c3        1 MOL     -0.157248
     12 C6        -12.3620    3.9010    0.1690 c         1 MOL      0.671423
     13 O3        -12.5460    4.5190   -0.9380 o         1 MOL     -0.722658
     14 O4        -13.1080    2.9880    0.5880 o         1 MOL     -0.722658
     15 H4         -8.7410    4.8480    1.9960 hn        1 MOL      0.293338
     16 H5        -10.1630    5.2280   -0.4700 h1        1 MOL      0.000640
     17 H6        -11.5430    5.1630    1.7590 hc        1 MOL      0.005491
     18 H7        -11.0850    3.5120    1.8330 hc        1 MOL      0.005491
     19 N2         -7.9130    3.4620   -0.4290 n         1 MOL     -0.615809
     20 C7         -7.0950    2.4980   -1.1080 c3        1 MOL      0.685673
     21 C8         -5.6550    2.4070   -0.3980 c         1 MOL      0.298339
     22 O5         -5.3090    3.2690    0.3500 o         1 MOL     -0.504911
     23 C9         -7.0390    2.7780   -2.6400 c3        1 MOL     -0.337504
     24 H8         -7.4930    4.3300   -0.1080 hn        1 MOL      0.246765
     25 H9         -7.5990    1.5310   -1.0540 h1        1 MOL     -0.128103
     26 H10        -6.4080    3.6700   -2.7190 hc        1 MOL      0.071984
     27 H11        -6.6010    1.9460   -3.1750 hc        1 MOL      0.071984
     28 H12        -8.0620    2.9600   -2.9730 hc        1 MOL      0.071984
     29 N3         -4.9280    1.2810   -0.4780 n         1 MOL     -0.230364
     30 C10        -5.1720    0.1070   -1.2940 c3        1 MOL     -0.294327
     31 C11        -5.2290   -1.2070   -0.4800 c         1 MOL      0.478785
     32 O6         -4.3740   -1.5510    0.4040 o         1 MOL     -0.490131
     33 C12        -4.0390   -0.0940   -2.3610 c3        1 MOL     -0.179784
     34 C13        -2.6410   -0.2780   -1.7720 c         1 MOL      0.817094
     35 O7         -2.2810    0.0900   -0.6170 o         1 MOL     -0.796824
     36 O8         -1.8040   -0.9020   -2.4150 o         1 MOL     -0.796824
     37 H13        -4.1240    1.2480    0.1310 hn        1 MOL      0.296324
     38 H14        -6.1230    0.0450   -1.8260 h1        1 MOL      0.170963
     39 H15        -3.9350    0.7580   -3.0470 hc        1 MOL      0.056062
     40 H16        -4.3010   -1.0480   -2.8220 hc        1 MOL      0.056062
     41 N4         -6.2810   -1.9670   -0.8920 n         1 MOL     -0.359062
     42 C14        -6.5840   -3.2610   -0.3400 c3        1 MOL      0.048880
     43 C15        -6.5230   -4.4050   -1.3980 c         1 MOL      0.503657
     44 O9         -7.6160   -4.7820   -1.9200 o         1 MOL     -0.547078
     45 H17        -6.9120   -1.5930   -1.5880 hn        1 MOL      0.300331
     46 H18        -7.6000   -3.2880    0.0460 h1        1 MOL      0.048714
     47 H19        -5.9240   -3.4920    0.5030 h1        1 MOL      0.048714
     48 N5         -5.3670   -4.8750   -1.8910 n         1 MOL     -0.604119
     49 C16        -4.0450   -4.5630   -1.3840 c3        1 MOL      0.414815
     50 C17        -3.8200   -5.1500    0.0320 c         1 MOL      0.443214
     51 O10        -4.1250   -6.3040    0.2060 o         1 MOL     -0.542440
     52 C18        -2.9000   -4.8630   -2.3520 c3        1 MOL     -0.386232
     53 C19        -1.5310   -4.3270   -2.0170 c         1 MOL      0.710823
     54 N6         -0.4980   -4.3320   -2.8650 n         1 MOL     -0.684292
     55 O11        -1.3830   -3.6610   -0.9850 o         1 MOL     -0.642875
     56 H20        -5.4860   -5.5660   -2.6250 hn        1 MOL      0.327198
     57 H21        -4.0490   -3.4730   -1.4090 h1        1 MOL      0.055399
     58 H22        -3.1570   -4.4000   -3.3050 hc        1 MOL      0.091184
     59 H23        -2.7650   -5.9390   -2.4130 hc        1 MOL      0.091184
     60 H24        -0.5420   -4.9780   -3.6330 hn        1 MOL      0.325162
     61 H25         0.3660   -3.9190   -2.5570 hn        1 MOL      0.325162
     62 N7         -3.4930   -4.2930    1.0660 n         1 MOL     -0.159197
     63 C20        -3.0690   -4.6970    2.4180 c3        1 MOL     -0.432610
     64 C21        -1.5840   -4.9790    2.6220 c         1 MOL      0.667227
     65 O12        -1.1750   -5.1460    3.7570 o         1 MOL     -0.597429
     66 H26        -3.4470   -3.3210    0.8030 hn        1 MOL      0.176334
     67 H27        -3.5620   -5.6540    2.5870 h1        1 MOL      0.159534
     68 H28        -3.4850   -3.9540    3.0990 h1        1 MOL      0.159534
     69 N8         -0.8220   -5.0950    1.5950 n         1 MOL     -0.336752
     70 C22         0.6050   -5.2740    1.6920 c3        1 MOL      0.002954
     71 C23         1.3400   -3.9340    1.6850 c         1 MOL      0.471613
     72 O13         0.9120   -2.9890    1.0100 o         1 MOL     -0.523275
     73 C24         1.1830   -6.2440    0.7030 c3        1 MOL      0.440389
     74 C25         0.7430   -7.6700    1.0860 c3        1 MOL     -0.482657
     75 O14         0.9200   -5.9620   -0.6020 oh        1 MOL     -0.654694
     76 H29        -1.0730   -4.7680    0.6690 hn        1 MOL      0.236543
     77 H30         0.7930   -5.6670    2.6960 h1        1 MOL      0.040369
     78 H31         2.2650   -6.1240    0.8510 h1        1 MOL     -0.041304
     79 H32         1.6980   -5.4810   -0.9080 ho        1 MOL      0.459060
     80 H33         1.0640   -8.3760    0.3240 hc        1 MOL      0.113403
     81 H34         0.8450   -8.0120    2.1160 hc        1 MOL      0.113403
     82 H35        -0.3450   -7.6750    0.9590 hc        1 MOL      0.113403
     83 N9          2.4920   -3.8330    2.4050 n         1 MOL     -0.404870
     84 C26         3.3370   -2.6290    2.3170 c3        1 MOL      0.110604
     85 C27         4.3660   -2.8470    1.2040 c         1 MOL      0.367271
     86 O15         5.2530   -3.7270    1.3150 o         1 MOL     -0.553349
     87 C28         3.9910   -2.4550    3.6750 c3        1 MOL      0.205256
     88 C29         5.1800   -1.4640    3.7790 c3        1 MOL     -0.117273
     89 C30         2.8480   -1.9870    4.7190 c3        1 MOL     -0.401243
     90 C31         5.0300   -0.0280    3.2490 c3        1 MOL     -0.245310
     91 H36         2.8390   -4.6280    2.9220 hn        1 MOL      0.258411
     92 H37         2.7400   -1.7200    2.2060 h1        1 MOL      0.113627
     93 H38         4.4260   -3.4000    4.0080 hc        1 MOL     -0.026513
     94 H39         6.0020   -2.0220    3.3180 hc        1 MOL      0.033348
     95 H40         5.4400   -1.3010    4.8230 hc        1 MOL      0.033348
     96 H41         3.2530   -2.1930    5.7010 hc        1 MOL      0.100257
     97 H42         2.5990   -0.9410    4.5380 hc        1 MOL      0.100257
     98 H43         1.9690   -2.6240    4.5630 hc        1 MOL      0.100257
     99 H44         5.9690    0.4440    3.5280 hc        1 MOL      0.063445
    100 H45         5.0580   -0.0400    2.1590 hc        1 MOL      0.063445
    101 H46         4.2060    0.4960    3.7520 hc        1 MOL      0.063445
    102 N10         4.2330   -2.0930    0.0870 n         1 MOL     -0.120737
    103 C32         4.9990   -2.3810   -1.1770 c3        1 MOL     -0.023340
    104 C33         6.1460   -1.3900   -1.4680 c         1 MOL      0.571381
    105 O16         6.9330   -1.5070   -2.3890 o         1 MOL     -0.560720
    106 C34         4.0390   -2.5460   -2.4100 c3        1 MOL     -0.280140
    107 C35         2.7530   -3.3030   -2.0530 c         1 MOL      0.888602
    108 O17         2.8440   -4.4950   -1.7010 o         1 MOL     -0.756085
    109 O18         1.6990   -2.6740   -2.1400 o         1 MOL     -0.756085
    110 H47         3.6250   -1.2930    0.0770 hn        1 MOL      0.079503
    111 H48         5.4770   -3.3510   -1.0140 h1        1 MOL      0.099735
    112 H49         4.4600   -3.0180   -3.2980 hc        1 MOL      0.067305
    113 H50         3.7380   -1.5770   -2.8160 hc        1 MOL      0.067305
    114 N11         6.2290   -0.3050   -0.6930 n         1 MOL     -0.593307
    115 C36         7.0480    0.8590   -1.1880 c3        1 MOL      0.332133
    116 C37         6.5930    2.1940   -0.5460 c         1 MOL      0.193490
    117 O19         6.4280    2.1840    0.6980 o         1 MOL     -0.495720
    118 C38         8.4970    0.6860   -0.7790 c3        1 MOL     -0.225019
    119 C39         9.4150    1.8160   -1.1470 ca        1 MOL      0.044767
    120 C40        10.0330    2.6060   -0.0550 ca        1 MOL     -0.106477
    121 C41         9.8620    2.1300   -2.4000 ca        1 MOL     -0.106477
    122 C42        10.8820    3.7140   -0.3230 ca        1 MOL     -0.157702
    123 C43        10.6480    3.2250   -2.7240 ca        1 MOL     -0.157702
    124 C44        11.0600    4.1120   -1.6890 ca        1 MOL     -0.081482
    125 H51         5.5410   -0.1200    0.0260 hn        1 MOL      0.390832
    126 H52         7.0190    1.0260   -2.2610 h1        1 MOL      0.001280
    127 H53         8.9390   -0.1880   -1.2540 hc        1 MOL      0.106663
    128 H54         8.6640    0.5140    0.2870 hc        1 MOL      0.106663
    129 H55         9.7490    2.3990    0.9740 ha        1 MOL      0.104088
    130 H56         9.4960    1.5250   -3.2180 ha        1 MOL      0.104088
    131 H57        11.3490    4.2820    0.4720 ha        1 MOL      0.119028
    132 H58        10.9560    3.5000   -3.7170 ha        1 MOL      0.119028
    133 H59        11.7090    4.9540   -1.8970 ha        1 MOL      0.090694
    134 N12         6.4730    3.2720   -1.2810 n         1 MOL      0.120307
    135 C45         6.5070    4.6300   -0.6630 c3        1 MOL     -0.019193
    136 C46         5.2240    4.9630    0.1660 c         1 MOL      0.406624
    137 O20         5.1750    6.0360    0.7810 o         1 MOL     -0.550350
    138 C47         6.7810    5.6130   -1.8120 c3        1 MOL     -0.082838
    139 C48         6.1650    4.8910   -3.0550 c3        1 MOL      0.085855
    140 C49         6.4120    3.4100   -2.7200 c3        1 MOL     -0.497893
    141 H60         7.3580    4.7090    0.0070 h1        1 MOL      0.061033
    142 H61         6.2190    6.5280   -1.6130 hc        1 MOL      0.052772
    143 H62         7.8530    5.8160   -1.8510 hc        1 MOL      0.052772
    144 H63         5.0940    5.1010   -2.9880 hc        1 MOL      0.020497
    145 H64         6.6530    5.2420   -3.9620 hc        1 MOL      0.020497
    146 H65         5.6500    2.7500   -3.1340 h1        1 MOL      0.173487
    147 H66         7.4150    3.1660   -3.0890 h1        1 MOL      0.173487
    148 N13         4.2370    4.1210    0.1750 n         1 MOL     -0.046978
    149 C50         2.9390    4.3530    0.7130 c3        1 MOL     -0.256331
    150 C51         2.9910    4.7370    2.2670 c         1 MOL      0.526858
    151 O21         2.0470    5.3110    2.7470 o         1 MOL     -0.542322
    152 C52         2.1470    3.1040    0.6060 c3        1 MOL     -0.008236
    153 C53         2.7130    1.8690    1.3720 c3        1 MOL      0.054391
    154 C54         1.9840    0.5930    0.9970 c         1 MOL      0.622476
    155 O22         2.4130   -0.0880   -0.0100 o         1 MOL     -0.698950
    156 O23         0.9220    0.2190    1.5340 o         1 MOL     -0.698950
    157 H67         4.2420    3.2800   -0.4010 hn        1 MOL      0.173609
    158 H68         2.5410    5.2050    0.1570 h1        1 MOL      0.126967
    159 H69         2.1380    2.8850   -0.4540 hc        1 MOL      0.021802
    160 H70         1.0970    3.1590    0.8810 hc        1 MOL      0.021802
    161 H71         2.6340    1.9320    2.4540 hc        1 MOL     -0.017394
    162 H72         3.7130    1.7000    0.9910 hc        1 MOL     -0.017394
    163 N14         4.0340    4.4220    2.9980 n         1 MOL     -0.140666
    164 C55         4.2210    4.9370    4.3470 c3        1 MOL     -0.114278
    165 H73         3.2480    5.1460    4.7930 h1        1 MOL      0.065670
    166 H74         4.7440    4.1950    4.9500 h1        1 MOL      0.065670
    167 H75         4.8080    5.8540    4.3080 h1        1 MOL      0.065670
    168 H76         4.7630    3.8630    2.5740 hn        1 MOL      0.158568
    169 Ca1        -0.0400   -1.2880   -0.5760 Ca        1 MOL      1.757938
    170 O24         0.6070    0.8280   -2.1440 oh        1 MOL     -0.785522
    171 H77         1.0380    1.1960   -2.9140 ho        1 MOL      0.397956
    172 H78         0.0180    1.5260   -1.8420 ho        1 MOL      0.397956
    173 O25        -1.7250   -1.5510    1.5120 oh        1 MOL     -0.785522
    174 H79        -1.7760   -1.0310    2.3190 ho        1 MOL      0.397956
    175 H80        -2.5910   -1.4700    1.1240 ho        1 MOL      0.397956
@<TRIPOS>BOND
     1    1    2 1   
     2    1    4 1   
     3    1    5 1   
     4    1    6 1   
     5    2    3 2   
     6    2    7 1   
     7    7    8 1   
     8    7   15 1   
     9    8    9 1   
    10    8   11 1   
    11    8   16 1   
    12    9   10 2   
    13    9   19 1   
    14   11   12 1   
    15   11   17 1   
    16   11   18 1   
    17   12   13 1   
    18   12   14 1   
    19   19   20 1   
    20   19   24 1   
    21   20   21 1   
    22   20   23 1   
    23   20   25 1   
    24   21   22 2   
    25   21   29 1   
    26   23   26 1   
    27   23   27 1   
    28   23   28 1   
    29   29   30 1   
    30   29   37 1   
    31   30   31 1   
    32   30   33 1   
    33   30   38 1   
    34   31   32 2   
    35   31   41 1   
    36   33   34 1   
    37   33   39 1   
    38   33   40 1   
    39   34   35 1   
    40   34   36 1   
    41   41   42 1   
    42   41   45 1   
    43   42   43 1   
    44   42   46 1   
    45   42   47 1   
    46   43   44 2   
    47   43   48 1   
    48   48   49 1   
    49   48   56 1   
    50   49   50 1   
    51   49   52 1   
    52   49   57 1   
    53   50   51 2   
    54   50   62 1   
    55   52   53 1   
    56   52   58 1   
    57   52   59 1   
    58   53   54 1   
    59   53   55 2   
    60   54   60 1   
    61   54   61 1   
    62   62   63 1   
    63   62   66 1   
    64   63   64 1   
    65   63   67 1   
    66   63   68 1   
    67   64   65 2   
    68   64   69 1   
    69   69   70 1   
    70   69   76 1   
    71   70   71 1   
    72   70   73 1   
    73   70   77 1   
    74   71   72 2   
    75   71   83 1   
    76   73   74 1   
    77   73   75 1   
    78   73   78 1   
    79   74   80 1   
    80   74   81 1   
    81   74   82 1   
    82   75   79 1   
    83   83   84 1   
    84   83   91 1   
    85   84   85 1   
    86   84   87 1   
    87   84   92 1   
    88   85   86 2   
    89   85  102 1   
    90   87   88 1   
    91   87   89 1   
    92   87   93 1   
    93   88   90 1   
    94   88   94 1   
    95   88   95 1   
    96   89   96 1   
    97   89   97 1   
    98   89   98 1   
    99   90   99 1   
   100   90  100 1   
   101   90  101 1   
   102  102  103 1   
   103  102  110 1   
   104  103  104 1   
   105  103  106 1   
   106  103  111 1   
   107  104  105 2   
   108  104  114 1   
   109  106  107 1   
   110  106  112 1   
   111  106  113 1   
   112  107  108 1   
   113  107  109 1   
   114  114  115 1   
   115  114  125 1   
   116  115  116 1   
   117  115  118 1   
   118  115  126 1   
   119  116  117 2   
   120  116  134 1   
   121  118  119 1   
   122  118  127 1   
   123  118  128 1   
   124  119  120 ar  
   125  119  121 ar  
   126  120  122 ar  
   127  120  129 1   
   128  121  123 ar  
   129  121  130 1   
   130  122  124 ar  
   131  122  131 1   
   132  123  124 ar  
   133  123  132 1   
   134  124  133 1   
   135  134  135 1   
   136  134  140 1   
   137  135  136 1   
   138  135  138 1   
   139  135  141 1   
   140  136  137 2   
   141  136  148 1   
   142  138  139 1   
   143  138  142 1   
   144  138  143 1   
   145  139  140 1   
   146  139  144 1   
   147  139  145 1   
   148  140  146 1   
   149  140  147 1   
   150  148  149 1   
   151  148  157 1   
   152  149  150 1   
   153  149  152 1   
   154  149  158 1   
   155  150  151 2   
   156  150  163 1   
   157  152  153 1   
   158  152  159 1   
   159  152  160 1   
   160  153  154 1   
   161  153  161 1   
   162  153  162 1   
   163  154  155 1   
   164  154  156 1   
   165  163  164 1   
   166  163  168 1   
   167  164  165 1   
   168  164  166 1   
   169  164  167 1   
   170  170  171 1   
   171  170  172 1   
   172  173  174 1   
   173  173  175 1   
@<TRIPOS>SUBSTRUCTURE
     1 MOL         1 TEMP              0 ****  ****    0 ROOT
