@<TRIPOS>MOLECULE
MOL
  192   187     1     0     0
SMALL
resp


@<TRIPOS>ATOM
      1 C1          9.7210    0.9270    1.1210 c3        1 MOL     -0.545419
      2 C2          8.5140    0.7820    0.2580 c         1 MOL      0.699432
      3 O1          7.7670    1.7440    0.1380 o         1 MOL     -0.594946
      4 H1          9.4120    1.0350    2.1610 hc        1 MOL      0.136518
      5 H2         10.3500    0.0420    1.0190 hc        1 MOL      0.136518
      6 H3         10.2820    1.8100    0.8160 hc        1 MOL      0.136518
      7 N1          8.4650   -0.3570   -0.4780 n         1 MOL     -0.331319
      8 C3          7.5540   -0.6440   -1.5870 c3        1 MOL     -0.033117
      9 C4          6.6170   -1.8350   -1.3450 c         1 MOL      0.371996
     10 O2          6.1420   -2.4400   -2.2720 o         1 MOL     -0.404691
     11 C5          8.3000   -0.6610   -2.9270 c3        1 MOL     -0.113272
     12 C6          9.6960   -1.3730   -3.0550 c         1 MOL      0.731865
     13 O3         10.4030   -1.0560   -4.0120 o         1 MOL     -0.658829
     14 O4         10.0040   -2.2850   -2.2540 o         1 MOL     -0.658829
     15 H4          9.3460   -0.8630   -0.4260 hn        1 MOL      0.172594
     16 H5          6.8870    0.2120   -1.6020 h1        1 MOL      0.117629
     17 H6          8.5400    0.3770   -3.1470 hc        1 MOL      0.035346
     18 H7          7.5790   -1.0440   -3.6610 hc        1 MOL      0.035346
     19 N2          6.4380   -2.1730   -0.0690 n         1 MOL     -0.266112
     20 C7          5.9540   -3.5540    0.3800 c3        1 MOL      0.070425
     21 C8          4.4560   -3.8910    0.1550 c         1 MOL      0.388328
     22 O5          4.1400   -4.9110   -0.4370 o         1 MOL     -0.507549
     23 C9          6.2540   -3.8250    1.8790 c3        1 MOL     -0.064487
     24 C10         7.6820   -3.6050    2.3450 c3        1 MOL      0.060775
     25 C11         7.8030   -3.7870    3.8970 c3        1 MOL      0.082700
     26 C12         9.2820   -3.8810    4.5080 c3        1 MOL      0.023424
     27 N3          9.2020   -4.0850    5.9480 n4        1 MOL     -0.219137
     28 H8          6.7840   -1.5340    0.6230 hn        1 MOL      0.139986
     29 H9          6.3780   -4.3510   -0.2270 h1        1 MOL      0.092316
     30 H10         6.0020   -4.8890    1.9550 hc        1 MOL      0.036770
     31 H11         5.5510   -3.3000    2.5240 hc        1 MOL      0.036770
     32 H12         8.0620   -2.6110    2.1070 hc        1 MOL     -0.007835
     33 H13         8.4060   -4.2830    1.9100 hc        1 MOL     -0.007835
     34 H14         7.1940   -4.6460    4.1810 hc        1 MOL     -0.026700
     35 H15         7.2990   -2.9240    4.3410 hc        1 MOL     -0.026700
     36 H16         9.7810   -2.9450    4.2370 hx        1 MOL      0.074044
     37 H17         9.7620   -4.6660    3.9260 hx        1 MOL      0.074044
     38 H18        10.1230   -4.3270    6.2910 hn        1 MOL      0.245598
     39 H19         8.9050   -3.3110    6.5150 hn        1 MOL      0.245598
     40 H20         8.5400   -4.7970    6.2150 hn        1 MOL      0.245598
     41 N4          3.4560   -3.0880    0.5080 n         1 MOL     -0.347669
     42 C13         3.4190   -1.7310    1.0830 c3        1 MOL     -0.007905
     43 C14         3.6400   -0.6360    0.0300 c         1 MOL      0.593131
     44 O6          3.5260   -0.9060   -1.1510 o         1 MOL     -0.427800
     45 C15         2.1250   -1.5090    1.9110 c3        1 MOL     -0.292135
     46 C16         0.7810   -1.9190    1.2440 c         1 MOL      0.550840
     47 O7          0.6340   -1.4660    0.0840 o         1 MOL     -0.594010
     48 O8          0.0440   -2.8530    1.7620 o         1 MOL     -0.594010
     49 H21         2.5830   -3.5660    0.3110 hn        1 MOL      0.328368
     50 H22         4.2980   -1.5690    1.7080 h1        1 MOL      0.059212
     51 H23         2.1290   -0.4610    2.2030 hc        1 MOL      0.071456
     52 H24         2.1980   -2.0290    2.8740 hc        1 MOL      0.071456
     53 N5          4.0540    0.5180    0.5380 n         1 MOL     -0.531897
     54 C17         4.1700    1.7230   -0.2400 c3        1 MOL     -0.010195
     55 C18         2.8560    2.1780   -0.8720 c         1 MOL      0.424073
     56 O9          1.7910    1.6170   -0.5930 o         1 MOL     -0.539861
     57 H25         4.3370    0.5360    1.5120 hn        1 MOL      0.300516
     58 H26         5.0250    1.5200   -0.8760 h1        1 MOL      0.076249
     59 H27         4.5470    2.5400    0.3720 h1        1 MOL      0.076249
     60 N6          3.0180    3.2140   -1.7470 n         1 MOL     -0.334951
     61 C19         1.9960    3.9890   -2.4770 c3        1 MOL      0.138429
     62 C20         2.4220    5.4130   -2.5850 c         1 MOL      0.440905
     63 O10         3.6320    5.7040   -2.6140 o         1 MOL     -0.543379
     64 C21         1.8020    3.3630   -3.8780 c3        1 MOL     -0.239729
     65 C22         1.2210    1.9610   -3.8050 c         1 MOL      0.663252
     66 O11         1.9190    1.0660   -4.2980 o         1 MOL     -0.659441
     67 O12         0.1030    1.7780   -3.2870 o         1 MOL     -0.659441
     68 H28         3.9730    3.5160   -1.8920 hn        1 MOL      0.254810
     69 H29         1.0720    3.9460   -1.8930 h1        1 MOL      0.088737
     70 H30         2.7770    3.3240   -4.3550 hc        1 MOL      0.082489
     71 H31         1.1840    3.9980   -4.5010 hc        1 MOL      0.082489
     72 N7          1.5890    6.4160   -2.7890 n         1 MOL     -0.368168
     73 C23         0.1630    6.3610   -2.8910 c3        1 MOL     -0.122437
     74 C24        -0.5490    6.1720   -1.5620 c         1 MOL      0.645953
     75 O13        -0.2740    6.8500   -0.5490 o         1 MOL     -0.531730
     76 H32         1.9680    7.3530   -2.7750 hn        1 MOL      0.308078
     77 H33        -0.1860    5.5990   -3.5880 h1        1 MOL      0.089982
     78 H34        -0.1130    7.3110   -3.3420 h1        1 MOL      0.089982
     79 N8         -1.5690    5.2440   -1.5920 n         1 MOL     -0.726127
     80 C25        -2.2900    4.8300   -0.3510 c3        1 MOL      0.215422
     81 C26        -1.3870    3.8010    0.3320 c         1 MOL      0.954960
     82 O14        -0.7480    2.9990   -0.3840 o         1 MOL     -0.850943
     83 C27        -3.6900    4.2080   -0.6630 c3        1 MOL      0.301363
     84 C28        -4.6350    5.3560   -0.9110 c3        1 MOL     -0.336338
     85 O15        -4.0880    3.4250    0.4560 oh        1 MOL     -0.627628
     86 H35        -1.8660    4.7970   -2.4510 hn        1 MOL      0.311708
     87 H36        -2.3630    5.6420    0.3640 h1        1 MOL     -0.018791
     88 H37        -3.5590    3.5430   -1.5230 h1        1 MOL      0.084463
     89 H38        -4.0590    3.8880    1.2970 ho        1 MOL      0.380331
     90 H39        -4.4460    5.9360   -1.8160 hc        1 MOL      0.096868
     91 H40        -5.6340    4.9740   -1.1390 hc        1 MOL      0.096868
     92 H41        -4.6350    6.0360   -0.0650 hc        1 MOL      0.096868
     93 N9         -1.3170    3.8020    1.6380 n         1 MOL     -0.536672
     94 C29        -0.5670    2.9540    2.5410 c3        1 MOL      0.024400
     95 C30        -0.9130    1.4300    2.4160 c         1 MOL      0.341562
     96 O16        -0.3860    0.7210    1.5240 o         1 MOL     -0.524070
     97 C31         0.9500    3.3050    2.4780 c3        1 MOL     -0.024529
     98 C32         1.3150    4.8370    2.4530 c3        1 MOL      0.057290
     99 C33         1.7030    2.5640    3.6520 c3        1 MOL     -0.450222
    100 C34         2.7060    5.0560    1.9580 c3        1 MOL     -0.063696
    101 H42        -1.7390    4.5810    2.1310 hn        1 MOL      0.242083
    102 H43        -0.9590    3.1950    3.5260 h1        1 MOL      0.071022
    103 H44         1.2510    2.9020    1.5120 hc        1 MOL      0.236036
    104 H45         1.1280    5.3910    3.3820 hc        1 MOL     -0.010633
    105 H46         0.7230    5.2800    1.6550 hc        1 MOL     -0.010633
    106 H47         1.5490    1.4930    3.5250 hc        1 MOL      0.121590
    107 H48         2.7770    2.7100    3.5690 hc        1 MOL      0.121590
    108 H49         1.3630    3.0270    4.5790 hc        1 MOL      0.121590
    109 H50         2.8190    6.1280    1.7510 hc        1 MOL      0.014240
    110 H51         3.5160    4.7830    2.6370 hc        1 MOL      0.014240
    111 H52         2.8220    4.5160    1.0250 hc        1 MOL      0.014240
    112 N10        -1.9100    1.0080    3.1710 n         1 MOL     -0.182495
    113 C35        -2.4250   -0.3640    3.1470 c3        1 MOL     -0.027836
    114 C36        -4.0450   -0.3920    3.1310 c         1 MOL      0.506375
    115 O17        -4.6320   -1.3470    3.6180 o         1 MOL     -0.538085
    116 C37        -1.8470   -1.1390    4.3580 c3        1 MOL      0.446942
    117 C38        -2.2830   -0.4320    5.6600 c3        1 MOL     -0.414095
    118 O18        -0.4510   -1.1980    4.2490 oh        1 MOL     -0.536216
    119 H53        -2.3050    1.6410    3.8590 hn        1 MOL      0.204377
    120 H54        -2.0420   -0.8420    2.2470 h1        1 MOL      0.039832
    121 H55        -2.2380   -2.1590    4.3070 h1        1 MOL     -0.007599
    122 H56        -0.3400   -1.7070    3.4350 ho        1 MOL      0.273681
    123 H57        -3.3730   -0.3220    5.6710 hc        1 MOL      0.095097
    124 H58        -2.0020   -1.1590    6.4250 hc        1 MOL      0.095097
    125 H59        -1.7050    0.4680    5.8400 hc        1 MOL      0.095097
    126 N11        -4.6390    0.7180    2.8060 n         1 MOL     -0.294162
    127 C39        -6.1010    0.9350    2.5580 c3        1 MOL     -0.095358
    128 C40        -6.6320    0.3070    1.2880 c         1 MOL      0.467407
    129 O19        -6.6860    0.9210    0.2540 o         1 MOL     -0.507485
    130 C41        -6.4990    2.4310    2.6340 c3        1 MOL      0.415101
    131 C42        -7.9320    2.7530    3.0270 c3        1 MOL     -0.330781
    132 O20        -5.6250    3.0390    3.5730 oh        1 MOL     -0.635510
    133 H60        -4.1290    1.5330    2.4940 hn        1 MOL      0.150064
    134 H61        -6.6520    0.4770    3.3760 h1        1 MOL      0.062361
    135 H62        -6.4060    2.9440    1.6780 h1        1 MOL      0.043254
    136 H63        -5.9690    2.7170    4.4120 ho        1 MOL      0.387197
    137 H64        -8.2310    3.6120    2.4320 hc        1 MOL      0.082045
    138 H65        -8.6020    1.9170    2.8190 hc        1 MOL      0.082045
    139 H66        -8.1330    2.9780    4.0780 hc        1 MOL      0.082045
    140 N12        -6.9090   -0.9720    1.4620 n         1 MOL     -0.466888
    141 C43        -6.7380   -2.0140    0.3520 c3        1 MOL      0.293011
    142 C44        -5.2900   -2.0370   -0.2030 c         1 MOL      0.275842
    143 O21        -4.6180   -1.0410   -0.0870 o         1 MOL     -0.327026
    144 C45        -7.6760   -1.8840   -0.8310 c3        1 MOL     -0.282623
    145 C46        -9.1770   -1.9820   -0.6040 c3        1 MOL      0.138930
    146 C47        -9.5580   -3.4560   -0.5170 c3        1 MOL      0.022395
    147 C48       -11.0810   -3.5990   -0.1660 c3        1 MOL      0.029980
    148 N13       -11.9490   -3.0340   -1.2010 n4        1 MOL     -0.149847
    149 H67        -6.7550   -1.3000    2.4030 hn        1 MOL      0.267991
    150 H68        -6.8670   -2.9800    0.8430 h1        1 MOL      0.023959
    151 H69        -7.4270   -2.6330   -1.5760 hc        1 MOL      0.096226
    152 H70        -7.5200   -0.8790   -1.2420 hc        1 MOL      0.096226
    153 H71        -9.6190   -1.5240   -1.4840 hc        1 MOL     -0.024229
    154 H72        -9.4220   -1.4750    0.3300 hc        1 MOL     -0.024229
    155 H73        -8.9540   -3.8210    0.3070 hc        1 MOL      0.005330
    156 H74        -9.2610   -3.8500   -1.4880 hc        1 MOL      0.005330
    157 H75       -11.2950   -3.0910    0.7650 hx        1 MOL      0.061507
    158 H76       -11.2400   -4.6760   -0.0770 hx        1 MOL      0.061507
    159 H77       -11.8420   -3.4400   -2.1230 hn        1 MOL      0.228893
    160 H78       -12.8960   -3.0690   -0.8560 hn        1 MOL      0.228893
    161 H79       -11.7320   -2.0500   -1.3140 hn        1 MOL      0.228893
    162 N14        -4.9260   -3.0840   -0.9280 n         1 MOL     -0.392401
    163 C49        -3.7990   -3.2090   -1.8740 c3        1 MOL      0.303988
    164 C50        -2.4160   -2.9530   -1.2660 c         1 MOL      0.315336
    165 O22        -1.7180   -2.1010   -1.6960 o         1 MOL     -0.518442
    166 C51        -3.8920   -4.4750   -2.7130 c3        1 MOL     -0.134411
    167 C52        -4.8340   -4.3930   -3.8930 c3        1 MOL     -0.162700
    168 C53        -4.8850   -5.5860   -4.8150 c         1 MOL      0.664468
    169 O23        -4.3970   -5.3990   -5.9420 o         1 MOL     -0.648288
    170 O24        -5.3500   -6.6780   -4.3780 o         1 MOL     -0.648288
    171 H80        -5.6140   -3.8300   -0.9330 hn        1 MOL      0.246078
    172 H81        -3.8750   -2.3630   -2.5530 h1        1 MOL     -0.004667
    173 H82        -4.1240   -5.3040   -2.0390 hc        1 MOL      0.084540
    174 H83        -2.9520   -4.6890   -3.2240 hc        1 MOL      0.084540
    175 H84        -4.4970   -3.5430   -4.4940 hc        1 MOL      0.019457
    176 H85        -5.8110   -4.0920   -3.5130 hc        1 MOL      0.019457
    177 N15        -2.0370   -3.4750   -0.1390 n         1 MOL     -0.302788
    178 C54        -2.6450   -4.6520    0.6510 c3        1 MOL      0.039116
    179 H86        -3.4470   -4.2840    1.2900 h1        1 MOL      0.013450
    180 H87        -3.0460   -5.3890   -0.0460 h1        1 MOL      0.013450
    181 H88        -1.8730   -5.1140    1.2660 h1        1 MOL      0.013450
    182 H89        -1.0960   -3.2700    0.1470 hn        1 MOL      0.338262
    183 Ca1        -0.5650    0.4070   -1.1540 Ca        1 MOL      1.843721
    184 O25        -2.8200    0.4980   -2.7540 oh        1 MOL     -0.961294
    185 H90        -3.5750    1.0560   -2.9390 ho        1 MOL      0.442396
    186 H91        -2.9000   -0.2220   -3.3850 ho        1 MOL      0.442396
    187 O26        -2.8950    0.8200    0.0010 oh        1 MOL     -0.961294
    188 H92        -3.5640    0.1420   -0.1520 ho        1 MOL      0.442396
    189 H93        -3.3890    1.6050    0.2250 ho        1 MOL      0.442396
    190 O27         1.1340   -0.8420   -2.7300 oh        1 MOL     -0.961294
    191 H94         1.2540   -0.1490   -3.3860 ho        1 MOL      0.442396
    192 H95         2.0150   -0.9840   -2.3670 ho        1 MOL      0.442396
@<TRIPOS>BOND
     1    1    2 1   
     2    1    4 1   
     3    1    5 1   
     4    1    6 1   
     5    2    3 2   
     6    2    7 1   
     7    7    8 1   
     8    7   15 1   
     9    8    9 1   
    10    8   11 1   
    11    8   16 1   
    12    9   10 2   
    13    9   19 1   
    14   11   12 1   
    15   11   17 1   
    16   11   18 1   
    17   12   13 1   
    18   12   14 1   
    19   19   20 1   
    20   19   28 1   
    21   20   21 1   
    22   20   23 1   
    23   20   29 1   
    24   21   22 2   
    25   21   41 1   
    26   23   24 1   
    27   23   30 1   
    28   23   31 1   
    29   24   25 1   
    30   24   32 1   
    31   24   33 1   
    32   25   26 1   
    33   25   34 1   
    34   25   35 1   
    35   26   27 1   
    36   26   36 1   
    37   26   37 1   
    38   27   38 1   
    39   27   39 1   
    40   27   40 1   
    41   41   42 1   
    42   41   49 1   
    43   42   43 1   
    44   42   45 1   
    45   42   50 1   
    46   43   44 2   
    47   43   53 1   
    48   45   46 1   
    49   45   51 1   
    50   45   52 1   
    51   46   47 1   
    52   46   48 1   
    53   53   54 1   
    54   53   57 1   
    55   54   55 1   
    56   54   58 1   
    57   54   59 1   
    58   55   56 2   
    59   55   60 1   
    60   60   61 1   
    61   60   68 1   
    62   61   62 1   
    63   61   64 1   
    64   61   69 1   
    65   62   63 2   
    66   62   72 1   
    67   64   65 1   
    68   64   70 1   
    69   64   71 1   
    70   65   66 1   
    71   65   67 1   
    72   72   73 1   
    73   72   76 1   
    74   73   74 1   
    75   73   77 1   
    76   73   78 1   
    77   74   75 2   
    78   74   79 1   
    79   79   80 1   
    80   79   86 1   
    81   80   81 1   
    82   80   83 1   
    83   80   87 1   
    84   81   82 2   
    85   81   93 1   
    86   83   84 1   
    87   83   85 1   
    88   83   88 1   
    89   84   90 1   
    90   84   91 1   
    91   84   92 1   
    92   85   89 1   
    93   93   94 1   
    94   93  101 1   
    95   94   95 1   
    96   94   97 1   
    97   94  102 1   
    98   95   96 2   
    99   95  112 1   
   100   97   98 1   
   101   97   99 1   
   102   97  103 1   
   103   98  100 1   
   104   98  104 1   
   105   98  105 1   
   106   99  106 1   
   107   99  107 1   
   108   99  108 1   
   109  100  109 1   
   110  100  110 1   
   111  100  111 1   
   112  112  113 1   
   113  112  119 1   
   114  113  114 1   
   115  113  116 1   
   116  113  120 1   
   117  114  115 2   
   118  114  126 1   
   119  116  117 1   
   120  116  118 1   
   121  116  121 1   
   122  117  123 1   
   123  117  124 1   
   124  117  125 1   
   125  118  122 1   
   126  126  127 1   
   127  126  133 1   
   128  127  128 1   
   129  127  130 1   
   130  127  134 1   
   131  128  129 2   
   132  128  140 1   
   133  130  131 1   
   134  130  132 1   
   135  130  135 1   
   136  131  137 1   
   137  131  138 1   
   138  131  139 1   
   139  132  136 1   
   140  140  141 1   
   141  140  149 1   
   142  141  142 1   
   143  141  144 1   
   144  141  150 1   
   145  142  143 2   
   146  142  162 1   
   147  144  145 1   
   148  144  151 1   
   149  144  152 1   
   150  145  146 1   
   151  145  153 1   
   152  145  154 1   
   153  146  147 1   
   154  146  155 1   
   155  146  156 1   
   156  147  148 1   
   157  147  157 1   
   158  147  158 1   
   159  148  159 1   
   160  148  160 1   
   161  148  161 1   
   162  162  163 1   
   163  162  171 1   
   164  163  164 1   
   165  163  166 1   
   166  163  172 1   
   167  164  165 2   
   168  164  177 1   
   169  166  167 1   
   170  166  173 1   
   171  166  174 1   
   172  167  168 1   
   173  167  175 1   
   174  167  176 1   
   175  168  169 1   
   176  168  170 1   
   177  177  178 1   
   178  177  182 1   
   179  178  179 1   
   180  178  180 1   
   181  178  181 1   
   182  184  185 1   
   183  184  186 1   
   184  187  188 1   
   185  187  189 1   
   186  190  191 1   
   187  190  192 1   
@<TRIPOS>SUBSTRUCTURE
     1 MOL         1 TEMP              0 ****  ****    0 ROOT
