@<TRIPOS>MOLECULE
MOL
  182   178     1     0     0
SMALL
resp


@<TRIPOS>ATOM
      1 C1          0.7970   -5.5450    5.7800 c3        1 MOL     -0.443834
      2 C2          0.8010   -4.9220    4.3570 c         1 MOL      0.740722
      3 O1          0.0000   -5.2590    3.4830 o         1 MOL     -0.644763
      4 H1          1.3570   -6.4800    5.7680 hc        1 MOL      0.129499
      5 H2          1.2610   -4.8530    6.4820 hc        1 MOL      0.129499
      6 H3         -0.2300   -5.7410    6.0880 hc        1 MOL      0.129499
      7 N1          1.7240   -4.0800    3.9850 n         1 MOL     -0.632184
      8 C3          2.0310   -3.5240    2.6340 c3        1 MOL      0.022939
      9 C4          2.3710   -4.6540    1.6250 c         1 MOL      0.687239
     10 O2          3.4730   -5.1810    1.6640 o         1 MOL     -0.565111
     11 C5          3.1630   -2.4120    2.7600 c3        1 MOL      0.264446
     12 C6          3.3520   -1.5970    1.4840 c         1 MOL      0.483014
     13 O3          3.8760   -0.4470    1.5070 o         1 MOL     -0.683495
     14 O4          2.9930   -2.0130    0.3630 o         1 MOL     -0.683495
     15 H4          2.3720   -3.9220    4.7430 hn        1 MOL      0.319376
     16 H5          1.2850   -2.8810    2.1680 h1        1 MOL     -0.032241
     17 H6          4.1160   -2.7960    3.1260 hc        1 MOL     -0.019264
     18 H7          2.8630   -1.7470    3.5650 hc        1 MOL     -0.019264
     19 N2          1.5250   -4.8350    0.5800 n         1 MOL     -0.404664
     20 C7          1.7080   -5.7870   -0.5230 c3        1 MOL      0.020044
     21 C8          2.9740   -5.6670   -1.4300 c         1 MOL      0.380171
     22 O5          3.2300   -6.5900   -2.2700 o         1 MOL     -0.553949
     23 C9          0.4550   -5.9580   -1.3340 c3        1 MOL      0.091544
     24 C10        -0.8220   -6.3190   -0.5630 c3        1 MOL     -0.251249
     25 C11        -2.1580   -6.2410   -1.3000 c3        1 MOL      0.081661
     26 C12        -2.5940   -7.3830   -2.2070 c3        1 MOL     -0.004362
     27 N3         -4.0130   -7.3020   -2.6300 n4        1 MOL     -0.288238
     28 H8          0.6710   -4.2930    0.4770 hn        1 MOL      0.311527
     29 H9          1.7770   -6.7660   -0.0470 h1        1 MOL      0.072109
     30 H10         0.5270   -6.7000   -2.1270 hc        1 MOL      0.002822
     31 H11         0.3640   -4.9790   -1.8070 hc        1 MOL      0.002822
     32 H12        -0.8480   -5.6280    0.2740 hc        1 MOL      0.087358
     33 H13        -0.6510   -7.3250   -0.2040 hc        1 MOL      0.087358
     34 H14        -2.1940   -5.3650   -1.9500 hc        1 MOL      0.020062
     35 H15        -2.9280   -5.9980   -0.5610 hc        1 MOL      0.020062
     36 H16        -2.4770   -8.2470   -1.5520 hx        1 MOL      0.087688
     37 H17        -1.9750   -7.4460   -3.1040 hx        1 MOL      0.087688
     38 H18        -4.6020   -7.2260   -1.8190 hn        1 MOL      0.260832
     39 H19        -4.1800   -6.5910   -3.3300 hn        1 MOL      0.260832
     40 H20        -4.2860   -8.1870   -3.0510 hn        1 MOL      0.260832
     41 N4          3.6230   -4.5010   -1.4510 n         1 MOL     -0.144093
     42 C13         4.7160   -4.1520   -2.3650 c3        1 MOL      0.176548
     43 C14         5.9010   -3.4740   -1.5390 c         1 MOL      0.193964
     44 O6          7.1080   -3.6460   -1.8070 o         1 MOL     -0.514771
     45 C15         4.1280   -3.1440   -3.3160 c3        1 MOL     -0.262740
     46 C16         3.3360   -2.0500   -2.6780 c         1 MOL      0.773625
     47 O7          3.9450   -1.0530   -2.2700 o         1 MOL     -0.752590
     48 O8          2.1030   -2.0560   -2.5580 o         1 MOL     -0.752590
     49 H21         3.1160   -3.7280   -1.0430 hn        1 MOL      0.161301
     50 H22         5.0990   -4.9520   -3.0090 h1        1 MOL      0.085128
     51 H23         3.4960   -3.6840   -4.0320 hc        1 MOL      0.060932
     52 H24         4.8910   -2.6290   -3.8990 hc        1 MOL      0.060932
     53 N5          5.5070   -2.8520   -0.4450 n         1 MOL      0.237804
     54 C17         6.3590   -2.3210    0.6300 c3        1 MOL     -0.267886
     55 C18         6.9230   -0.9630    0.2230 c         1 MOL      0.583226
     56 O9          7.9090   -0.4950    0.8150 o         1 MOL     -0.568378
     57 H25         4.5170   -2.6780   -0.3520 hn        1 MOL     -0.237994
     58 H26         7.1960   -3.0160    0.5970 h1        1 MOL      0.130430
     59 H27         6.0740   -2.3910    1.6740 h1        1 MOL      0.130430
     60 N6          6.2870   -0.3320   -0.7720 n         1 MOL     -0.363513
     61 C19         6.7430    0.8830   -1.4700 c3        1 MOL      0.234229
     62 C20         5.6450    1.9670   -1.4550 c         1 MOL      0.650388
     63 O10         4.4620    1.6560   -1.2280 o         1 MOL     -0.619124
     64 C21         7.0660    0.4860   -2.9540 c3        1 MOL     -0.479546
     65 C22         7.6770    1.6320   -3.7140 c         1 MOL      0.717752
     66 N7          7.1940    1.9960   -4.8680 n         1 MOL     -0.816984
     67 O11         8.5920    2.2470   -3.2190 o         1 MOL     -0.565229
     68 H28         5.4490   -0.7630   -1.1510 hn        1 MOL      0.316145
     69 H29         7.6450    1.1900   -0.9480 h1        1 MOL      0.016185
     70 H30         6.1480    0.0890   -3.3940 hc        1 MOL      0.149172
     71 H31         7.8500   -0.2730   -2.9140 hc        1 MOL      0.149172
     72 H32         6.7320    1.2820   -5.4200 hn        1 MOL      0.362149
     73 H33         7.6430    2.7230   -5.3950 hn        1 MOL      0.362149
     74 N8          6.0560    3.2440   -1.4310 n         1 MOL     -0.504023
     75 C23         5.2350    4.4590   -1.3120 c3        1 MOL      0.051558
     76 C24         4.4160    4.6450    0.0080 c         1 MOL      0.473168
     77 O12         5.0330    4.6560    1.0910 o         1 MOL     -0.489424
     78 H34         7.0300    3.4410   -1.5980 hn        1 MOL      0.320152
     79 H35         4.5480    4.5830   -2.1570 h1        1 MOL      0.051786
     80 H36         5.8250    5.3560   -1.4990 h1        1 MOL      0.051786
     81 N9          3.0830    4.6550   -0.0880 n         1 MOL     -0.560951
     82 C25         2.1590    4.7210    1.0710 c3        1 MOL      0.374531
     83 C26         1.8060    3.2450    1.5420 c         1 MOL      0.412632
     84 O13         2.4620    2.2980    1.0510 o         1 MOL     -0.393415
     85 C27         0.9060    5.5320    0.6280 c3        1 MOL     -0.284040
     86 C28         1.3310    6.9790    0.4080 ca        1 MOL      0.117500
     87 C29         1.1470    7.8960    1.4310 ca        1 MOL     -0.201262
     88 C30         1.9120    7.3470   -0.8790 ca        1 MOL     -0.201262
     89 C31         1.5240    9.2030    1.1820 ca        1 MOL     -0.190698
     90 C32         2.1970    8.7000   -1.0720 ca        1 MOL     -0.190698
     91 C33         2.1100    9.6020   -0.0320 ca        1 MOL      0.281453
     92 O14         2.4110   10.8620   -0.3490 oh        1 MOL     -0.474824
     93 H37         2.7220    4.6440   -1.0380 hn        1 MOL      0.317468
     94 H38         2.5430    5.2100    1.9680 h1        1 MOL      0.025647
     95 H39         0.0750    5.4960    1.3390 hc        1 MOL      0.069672
     96 H40         0.5920    5.1660   -0.3490 hc        1 MOL      0.069672
     97 H41         0.7660    7.6590    2.4170 ha        1 MOL      0.140947
     98 H42         1.9790    6.6610   -1.7140 ha        1 MOL      0.140947
     99 H43         1.4100    9.8490    2.0360 ha        1 MOL      0.129288
    100 H44         2.7010    9.0260   -1.9720 ha        1 MOL      0.129288
    101 H45         2.4100   11.5370    0.3280 ho        1 MOL      0.380819
    102 N10         0.9170    3.0430    2.5400 n         1 MOL     -0.605118
    103 C34         0.4280    1.7970    3.1520 c3        1 MOL      0.035114
    104 C35        -0.1300    0.6250    2.1710 c         1 MOL      0.479883
    105 O15         0.7070    0.0620    1.4150 o         1 MOL     -0.492391
    106 C36         1.4470    1.1390    4.1110 c3        1 MOL      0.331685
    107 C37         0.8620    0.3010    5.2420 c3        1 MOL     -0.081512
    108 C38         2.1420    2.2460    4.8880 c3        1 MOL     -0.289488
    109 C39        -0.1140    0.9510    6.2650 c3        1 MOL     -0.216497
    110 H46         0.5320    3.9040    2.9170 hn        1 MOL      0.324410
    111 H47        -0.4780    2.1380    3.6390 h1        1 MOL      0.059998
    112 H48         2.1180    0.5070    3.5350 hc        1 MOL     -0.019344
    113 H49         1.6780   -0.1510    5.8020 hc        1 MOL      0.029432
    114 H50         0.2890   -0.5350    4.8430 hc        1 MOL      0.029432
    115 H51         2.6660    1.9340    5.7880 hc        1 MOL      0.076769
    116 H52         2.8860    2.8340    4.3370 hc        1 MOL      0.076769
    117 H53         1.3790    2.9240    5.2700 hc        1 MOL      0.076769
    118 H54        -0.9660    1.4390    5.8080 hc        1 MOL      0.050410
    119 H55        -0.3920    0.1860    7.0040 hc        1 MOL      0.050410
    120 H56         0.4070    1.7480    6.7870 hc        1 MOL      0.050410
    121 N11        -1.3780    0.1270    2.4080 n         1 MOL     -0.487080
    122 C40        -1.8670   -1.0690    1.6860 c3        1 MOL      0.194790
    123 C41        -3.2260   -0.8820    0.9130 c         1 MOL      0.439742
    124 O16        -3.4910   -1.7330    0.0530 o         1 MOL     -0.555910
    125 C42        -2.1300   -2.2450    2.7100 c3        1 MOL     -0.044517
    126 O17        -0.9240   -2.6220    3.3340 oh        1 MOL     -0.459655
    127 H57        -2.0310    0.6040    3.0100 hn        1 MOL      0.294256
    128 H58        -1.1620   -1.4700    0.9630 h1        1 MOL      0.050631
    129 H59        -2.5720   -3.1080    2.2070 h1        1 MOL      0.082002
    130 H60        -2.8170   -2.0680    3.5340 h1        1 MOL      0.082002
    131 H61        -0.9980   -3.5260    3.6110 ho        1 MOL      0.344709
    132 N12        -3.9660    0.1670    1.2010 n         1 MOL     -0.505276
    133 C43        -5.1300    0.4290    0.3360 c3        1 MOL      0.139105
    134 C44        -4.7120    0.8710   -1.0660 c         1 MOL      0.688899
    135 O18        -3.5040    1.1490   -1.2720 o         1 MOL     -0.608760
    136 C45        -5.7750    1.6550    0.9630 c3        1 MOL     -0.098690
    137 H62        -3.6930    0.8640    1.8730 hn        1 MOL      0.295226
    138 H63        -5.7770   -0.4540    0.3160 h1        1 MOL      0.116517
    139 H64        -6.1490    1.4860    1.9700 hc        1 MOL      0.033115
    140 H65        -5.0240    2.4430    0.9420 hc        1 MOL      0.033115
    141 H66        -6.5470    2.0020    0.2750 hc        1 MOL      0.033115
    142 N13        -5.5430    0.8540   -2.0620 n         1 MOL     -0.726922
    143 C46        -6.9610    0.4930   -1.9880 c3        1 MOL      0.560686
    144 C47        -7.9100    1.6210   -2.4330 c         1 MOL      0.468038
    145 O19        -7.5220    2.6340   -3.0070 o         1 MOL     -0.559454
    146 C48        -7.1300   -0.7490   -2.8950 c3        1 MOL     -0.475100
    147 H67        -5.2190    1.0580   -2.9990 hn        1 MOL      0.361382
    148 H68        -7.2870    0.1760   -0.9990 h1        1 MOL     -0.108052
    149 H69        -6.6980   -1.6370   -2.4310 hc        1 MOL      0.126795
    150 H70        -8.1560   -0.9530   -3.1810 hc        1 MOL      0.126795
    151 H71        -6.6530   -0.4500   -3.8270 hc        1 MOL      0.126795
    152 N14        -9.1890    1.6560   -2.1020 n         1 MOL     -0.549940
    153 C49        -9.8350    0.7630   -1.1700 c3        1 MOL     -0.071988
    154 C50        -9.4280    1.1050    0.2630 c         1 MOL      0.499035
    155 O20        -8.8900    0.2730    1.0390 o         1 MOL     -0.521891
    156 C51       -11.3270    0.7530   -1.5370 c3        1 MOL      0.289423
    157 C52       -12.0870   -0.2660   -0.8060 c3        1 MOL     -0.324126
    158 C53       -13.5400   -0.1880   -1.1780 c         1 MOL      0.756724
    159 O21       -14.3760    0.6480   -0.6930 o         1 MOL     -0.671394
    160 O22       -13.9400   -1.0400   -1.9710 o         1 MOL     -0.671394
    161 H72        -9.6730    2.4680   -2.4450 hn        1 MOL      0.344795
    162 H73        -9.5510   -0.2790   -1.3220 h1        1 MOL      0.087959
    163 H74       -11.4870    0.6430   -2.6110 hc        1 MOL     -0.046416
    164 H75       -11.8140    1.6980   -1.3200 hc        1 MOL     -0.046416
    165 H76       -12.1000   -0.0400    0.2620 hc        1 MOL      0.053492
    166 H77       -11.7660   -1.2970   -0.9490 hc        1 MOL      0.053492
    167 N15        -9.7280    2.3780    0.6240 n         1 MOL     -0.301303
    168 C54        -9.3050    2.9120    1.9420 c3        1 MOL     -0.384735
    169 H78        -8.8390    2.1160    2.5230 h1        1 MOL      0.155728
    170 H79        -8.5890    3.7210    1.7940 h1        1 MOL      0.155728
    171 H80       -10.1760    3.2900    2.4770 h1        1 MOL      0.155728
    172 H81       -10.3170    2.9600    0.0400 hn        1 MOL      0.293015
    173 Ca1         2.2350    0.2590   -0.6660 Ca        1 MOL      1.790513
    174 O23         0.2680    2.3930   -1.0280 oh        1 MOL     -0.852361
    175 H82        -0.5220    2.6120   -0.5170 ho        1 MOL      0.417690
    176 H83        -0.0080    2.4570   -1.9380 ho        1 MOL      0.417690
    177 O24        -0.1220   -0.8860   -1.5410 oh        1 MOL     -0.852361
    178 H84         0.1610   -1.4890   -2.2280 ho        1 MOL      0.417690
    179 H85        -1.0460   -1.0780   -1.4080 ho        1 MOL      0.417690
    180 O25         2.2650    1.1630   -3.2860 oh        1 MOL     -0.852361
    181 H86         1.4620    1.4130   -3.7490 ho        1 MOL      0.417690
    182 H87         2.8170    0.7750   -3.9720 ho        1 MOL      0.417690
@<TRIPOS>BOND
     1    1    2 1   
     2    1    4 1   
     3    1    5 1   
     4    1    6 1   
     5    2    3 2   
     6    2    7 1   
     7    7    8 1   
     8    7   15 1   
     9    8    9 1   
    10    8   11 1   
    11    8   16 1   
    12    9   10 2   
    13    9   19 1   
    14   11   12 1   
    15   11   17 1   
    16   11   18 1   
    17   12   13 1   
    18   12   14 1   
    19   19   20 1   
    20   19   28 1   
    21   20   21 1   
    22   20   23 1   
    23   20   29 1   
    24   21   22 2   
    25   21   41 1   
    26   23   24 1   
    27   23   30 1   
    28   23   31 1   
    29   24   25 1   
    30   24   32 1   
    31   24   33 1   
    32   25   26 1   
    33   25   34 1   
    34   25   35 1   
    35   26   27 1   
    36   26   36 1   
    37   26   37 1   
    38   27   38 1   
    39   27   39 1   
    40   27   40 1   
    41   41   42 1   
    42   41   49 1   
    43   42   43 1   
    44   42   45 1   
    45   42   50 1   
    46   43   44 2   
    47   43   53 1   
    48   45   46 1   
    49   45   51 1   
    50   45   52 1   
    51   46   47 1   
    52   46   48 1   
    53   53   54 1   
    54   53   57 1   
    55   54   55 1   
    56   54   58 1   
    57   54   59 1   
    58   55   56 2   
    59   55   60 1   
    60   60   61 1   
    61   60   68 1   
    62   61   62 1   
    63   61   64 1   
    64   61   69 1   
    65   62   63 2   
    66   62   74 1   
    67   64   65 1   
    68   64   70 1   
    69   64   71 1   
    70   65   66 1   
    71   65   67 2   
    72   66   72 1   
    73   66   73 1   
    74   74   75 1   
    75   74   78 1   
    76   75   76 1   
    77   75   79 1   
    78   75   80 1   
    79   76   77 2   
    80   76   81 1   
    81   81   82 1   
    82   81   93 1   
    83   82   83 1   
    84   82   85 1   
    85   82   94 1   
    86   83   84 2   
    87   83  102 1   
    88   85   86 1   
    89   85   95 1   
    90   85   96 1   
    91   86   87 ar  
    92   86   88 ar  
    93   87   89 ar  
    94   87   97 1   
    95   88   90 ar  
    96   88   98 1   
    97   89   91 ar  
    98   89   99 1   
    99   90   91 ar  
   100   90  100 1   
   101   91   92 1   
   102   92  101 1   
   103  102  103 1   
   104  102  110 1   
   105  103  104 1   
   106  103  106 1   
   107  103  111 1   
   108  104  105 2   
   109  104  121 1   
   110  106  107 1   
   111  106  108 1   
   112  106  112 1   
   113  107  109 1   
   114  107  113 1   
   115  107  114 1   
   116  108  115 1   
   117  108  116 1   
   118  108  117 1   
   119  109  118 1   
   120  109  119 1   
   121  109  120 1   
   122  121  122 1   
   123  121  127 1   
   124  122  123 1   
   125  122  125 1   
   126  122  128 1   
   127  123  124 2   
   128  123  132 1   
   129  125  126 1   
   130  125  129 1   
   131  125  130 1   
   132  126  131 1   
   133  132  133 1   
   134  132  137 1   
   135  133  134 1   
   136  133  136 1   
   137  133  138 1   
   138  134  135 2   
   139  134  142 1   
   140  136  139 1   
   141  136  140 1   
   142  136  141 1   
   143  142  143 1   
   144  142  147 1   
   145  143  144 1   
   146  143  146 1   
   147  143  148 1   
   148  144  145 2   
   149  144  152 1   
   150  146  149 1   
   151  146  150 1   
   152  146  151 1   
   153  152  153 1   
   154  152  161 1   
   155  153  154 1   
   156  153  156 1   
   157  153  162 1   
   158  154  155 2   
   159  154  167 1   
   160  156  157 1   
   161  156  163 1   
   162  156  164 1   
   163  157  158 1   
   164  157  165 1   
   165  157  166 1   
   166  158  159 1   
   167  158  160 1   
   168  167  168 1   
   169  167  172 1   
   170  168  169 1   
   171  168  170 1   
   172  168  171 1   
   173  174  175 1   
   174  174  176 1   
   175  177  178 1   
   176  177  179 1   
   177  180  181 1   
   178  180  182 1   
@<TRIPOS>SUBSTRUCTURE
     1 MOL         1 TEMP              0 ****  ****    0 ROOT
