@<TRIPOS>MOLECULE
MOL
  192   187     1     0     0
SMALL
resp


@<TRIPOS>ATOM
      1 C1         10.4700   -0.1060    1.9340 c3        1 MOL     -0.381366
      2 C2          9.1510   -0.2690    1.2000 c         1 MOL      0.677440
      3 O1          8.1230   -0.4370    1.8550 o         1 MOL     -0.608269
      4 H1         10.3740   -0.5010    2.9450 hc        1 MOL      0.098889
      5 H2         11.2510   -0.6510    1.4040 hc        1 MOL      0.098889
      6 H3         10.7320    0.9510    1.9810 hc        1 MOL      0.098889
      7 N1          9.1400   -0.2560   -0.1320 n         1 MOL     -0.518834
      8 C3          7.9240   -0.2370   -1.0140 c3        1 MOL     -0.076848
      9 C4          7.0620   -1.4800   -1.0950 c         1 MOL      0.586964
     10 O2          6.6880   -1.9860   -2.1520 o         1 MOL     -0.431467
     11 C5          8.3880    0.2740   -2.3740 c3        1 MOL     -0.326355
     12 C6          9.1730   -0.7090   -3.1730 c         1 MOL      0.758460
     13 O3          8.8910   -0.9360   -4.3640 o         1 MOL     -0.644407
     14 O4         10.1520   -1.2420   -2.7040 o         1 MOL     -0.644407
     15 H4          9.9860   -0.0890   -0.6510 hn        1 MOL      0.302519
     16 H5          7.2790    0.5460   -0.5940 h1        1 MOL      0.149324
     17 H6          8.9850    1.1820   -2.3270 hc        1 MOL      0.098120
     18 H7          7.5030    0.5350   -2.9450 hc        1 MOL      0.098120
     19 N2          6.7310   -2.0760    0.0140 n         1 MOL     -0.419183
     20 C7          6.2170   -3.4510    0.1160 c3        1 MOL      0.071073
     21 C8          4.7250   -3.6970   -0.2630 c         1 MOL      0.424201
     22 O5          4.4640   -4.6150   -1.0640 o         1 MOL     -0.531816
     23 C9          6.4530   -4.0050    1.4800 c3        1 MOL      0.035710
     24 C10         7.8370   -3.9110    2.0030 c3        1 MOL      0.039712
     25 C11         8.0250   -4.5300    3.4190 c3        1 MOL      0.005997
     26 C12         9.5070   -4.5700    3.8520 c3        1 MOL      0.086534
     27 N3          9.6190   -5.2610    5.1580 n4        1 MOL     -0.242820
     28 H8          6.8370   -1.5620    0.8780 hn        1 MOL      0.239213
     29 H9          6.7100   -4.1090   -0.6030 h1        1 MOL      0.085039
     30 H10         5.9850   -4.9800    1.5450 hc        1 MOL      0.001772
     31 H11         5.8910   -3.4200    2.2160 hc        1 MOL      0.001772
     32 H12         8.1240   -2.8680    2.1450 hc        1 MOL     -0.002143
     33 H13         8.5010   -4.4650    1.3440 hc        1 MOL     -0.002143
     34 H14         7.5590   -5.5040    3.2780 hc        1 MOL      0.002619
     35 H15         7.4590   -3.9470    4.1460 hc        1 MOL      0.002619
     36 H16         9.8560   -3.5400    3.9220 hx        1 MOL      0.054615
     37 H17        10.0960   -5.1080    3.1070 hx        1 MOL      0.054615
     38 H18        10.5430   -5.1660    5.5520 hn        1 MOL      0.230933
     39 H19         9.0230   -4.7330    5.7770 hn        1 MOL      0.230933
     40 H20         9.3190   -6.2180    5.0660 hn        1 MOL      0.230933
     41 N4          3.7380   -2.9240    0.1110 n         1 MOL     -0.415504
     42 C13         3.7480   -1.6430    0.8620 c3        1 MOL      0.031422
     43 C14         3.8820   -0.3530    0.0230 c         1 MOL      0.389316
     44 O6          3.8230   -0.4000   -1.1950 o         1 MOL     -0.365105
     45 C15         2.4910   -1.6300    1.7470 c3        1 MOL     -0.359995
     46 C16         1.1640   -1.7520    0.9650 c         1 MOL      0.908926
     47 O7          0.8010   -0.9480    0.1040 o         1 MOL     -0.774019
     48 O8          0.3600   -2.6900    1.3040 o         1 MOL     -0.774019
     49 H21         2.9170   -3.2310   -0.3910 hn        1 MOL      0.349748
     50 H22         4.6060   -1.6170    1.5410 h1        1 MOL      0.111589
     51 H23         2.4380   -0.7300    2.3550 hc        1 MOL      0.088970
     52 H24         2.5310   -2.4530    2.4500 hc        1 MOL      0.088970
     53 N5          4.0200    0.7960    0.7070 n         1 MOL     -0.565908
     54 C17         4.0980    2.1410    0.1110 c3        1 MOL      0.076746
     55 C18         2.8730    2.6580   -0.6830 c         1 MOL      0.580207
     56 O9          1.8120    2.0440   -0.7160 o         1 MOL     -0.465601
     57 H25         4.1060    0.6920    1.7010 hn        1 MOL      0.310485
     58 H26         4.9680    2.1790   -0.5400 h1        1 MOL      0.048423
     59 H27         4.3800    2.9930    0.7360 h1        1 MOL      0.048423
     60 N6          3.1050    3.8550   -1.3190 n         1 MOL     -0.490378
     61 C19         2.2070    4.6310   -2.1150 c3        1 MOL      0.233482
     62 C20         2.5280    6.1350   -2.2240 c         1 MOL      0.557751
     63 O10         3.6810    6.4810   -2.1960 o         1 MOL     -0.533353
     64 C21         2.0110    4.0230   -3.4780 c3        1 MOL     -0.344654
     65 C22         1.4380    2.6150   -3.4890 c         1 MOL      0.770423
     66 O11         2.1370    1.6950   -3.8970 o         1 MOL     -0.678490
     67 O12         0.2610    2.4770   -3.1460 o         1 MOL     -0.678490
     68 H28         3.9560    4.3350   -1.0270 hn        1 MOL      0.270534
     69 H29         1.2000    4.5050   -1.7020 h1        1 MOL     -0.011875
     70 H30         2.9870    3.8680   -3.9490 hc        1 MOL      0.078228
     71 H31         1.3660    4.6030   -4.1320 hc        1 MOL      0.078228
     72 N7          1.5780    7.0880   -2.3640 n         1 MOL     -0.547278
     73 C23         0.1360    6.9740   -2.3580 c3        1 MOL      0.086536
     74 C24        -0.3370    6.3150   -1.0160 c         1 MOL      0.579806
     75 O13         0.3310    6.3700    0.0410 o         1 MOL     -0.503866
     76 H32         1.9140    7.9800   -2.6900 hn        1 MOL      0.333829
     77 H33        -0.3310    6.4510   -3.1870 h1        1 MOL      0.039894
     78 H34        -0.3680    7.9440   -2.3910 h1        1 MOL      0.039894
     79 N8         -1.5770    5.7280   -1.1360 n         1 MOL     -0.691633
     80 C25        -2.3380    5.1880   -0.0480 c3        1 MOL      0.101159
     81 C26        -1.5640    3.9960    0.5250 c         1 MOL      0.964735
     82 O14        -0.9220    3.3140   -0.2820 o         1 MOL     -0.710743
     83 C27        -3.7840    4.9200   -0.3290 c3        1 MOL      0.351680
     84 C28        -4.6180    4.5430    0.8870 c3        1 MOL     -0.298335
     85 O15        -3.8940    3.8710   -1.2270 oh        1 MOL     -0.610585
     86 H35        -2.0700    5.8990   -2.0100 hn        1 MOL      0.321176
     87 H36        -2.3580    5.9080    0.7710 h1        1 MOL      0.016850
     88 H37        -4.1520    5.8730   -0.7150 h1        1 MOL      0.002444
     89 H38        -3.5080    4.0910   -2.0800 ho        1 MOL      0.401413
     90 H39        -5.6710    4.6460    0.6210 hc        1 MOL      0.077119
     91 H40        -4.4960    3.5270    1.2600 hc        1 MOL      0.077119
     92 H41        -4.4120    5.2590    1.6860 hc        1 MOL      0.077119
     93 N9         -1.6040    3.8460    1.8710 n         1 MOL     -0.794789
     94 C29        -0.9450    2.8220    2.7460 c3        1 MOL      0.028134
     95 C30        -1.5160    1.4800    2.4180 c         1 MOL      0.399989
     96 O16        -1.1250    1.0150    1.3900 o         1 MOL     -0.490452
     97 C31         0.6230    2.8900    2.7290 c3        1 MOL      0.083772
     98 C32         1.1270    4.2350    3.2940 c3        1 MOL      0.095752
     99 C33         1.2590    1.8310    3.6190 c3        1 MOL     -0.302634
    100 C34         2.5860    4.5040    3.0440 c3        1 MOL     -0.013813
    101 H42        -2.1120    4.4680    2.4850 hn        1 MOL      0.351225
    102 H43        -1.2720    2.9900    3.7640 h1        1 MOL      0.070694
    103 H44         1.0610    2.7620    1.7420 hc        1 MOL      0.068941
    104 H45         0.8310    4.3630    4.3310 hc        1 MOL     -0.024972
    105 H46         0.5880    5.0670    2.8610 hc        1 MOL     -0.024972
    106 H47         1.1540    2.1500    4.6600 hc        1 MOL      0.067407
    107 H48         0.8590    0.8360    3.4620 hc        1 MOL      0.067407
    108 H49         2.3160    1.7120    3.4040 hc        1 MOL      0.067407
    109 H50         2.8280    5.5230    3.3670 hc        1 MOL     -0.000301
    110 H51         3.1840    3.8420    3.6890 hc        1 MOL     -0.000301
    111 H52         2.9850    4.3640    2.0400 hc        1 MOL     -0.000301
    112 N10        -2.4630    0.8730    3.1630 n         1 MOL     -0.162321
    113 C35        -2.9620   -0.4800    2.9430 c3        1 MOL     -0.016583
    114 C36        -4.4580   -0.6040    3.0560 c         1 MOL      0.518173
    115 O17        -4.9230   -1.6490    3.4240 o         1 MOL     -0.585357
    116 C37        -2.1880   -1.4170    3.8370 c3        1 MOL      0.321952
    117 C38        -2.3000   -0.9960    5.3740 c3        1 MOL     -0.233870
    118 O18        -0.7960   -1.3870    3.6390 oh        1 MOL     -0.520910
    119 H53        -2.7010    1.3270    4.0360 hn        1 MOL      0.190226
    120 H54        -2.6950   -0.7560    1.9260 h1        1 MOL     -0.006707
    121 H55        -2.5760   -2.4300    3.7330 h1        1 MOL      0.018288
    122 H56        -0.6650   -1.6640    2.7320 ho        1 MOL      0.320086
    123 H57        -1.7290   -1.6780    6.0100 hc        1 MOL      0.048134
    124 H58        -1.7950   -0.0460    5.5170 hc        1 MOL      0.048134
    125 H59        -3.3480   -0.8730    5.6500 hc        1 MOL      0.048134
    126 N11        -5.2790    0.3390    2.7140 n         1 MOL     -0.171918
    127 C39        -6.7220    0.1880    2.7390 c3        1 MOL      0.107506
    128 C40        -7.2290   -0.5820    1.4820 c         1 MOL      0.410320
    129 O19        -7.8960   -0.0190    0.6230 o         1 MOL     -0.481025
    130 C41        -7.3780    1.5400    2.9430 c3        1 MOL      0.504378
    131 C42        -8.6570    1.4070    3.7270 c3        1 MOL     -0.342758
    132 O20        -6.5380    2.4540    3.5640 oh        1 MOL     -0.655261
    133 H60        -4.8680    1.2460    2.5650 hn        1 MOL      0.083479
    134 H61        -6.9110   -0.3280    3.6760 h1        1 MOL      0.040263
    135 H62        -7.5730    1.9690    1.9680 h1        1 MOL     -0.061819
    136 H63        -7.0280    3.2680    3.4530 ho        1 MOL      0.404330
    137 H64        -8.3700    1.0660    4.7160 hc        1 MOL      0.072805
    138 H65        -9.1290    2.3890    3.7990 hc        1 MOL      0.072805
    139 H66        -9.3180    0.6400    3.3480 hc        1 MOL      0.072805
    140 N12        -6.8300   -1.8820    1.3090 n         1 MOL     -0.645827
    141 C43        -6.6630   -2.6070    0.0240 c3        1 MOL      0.404972
    142 C44        -5.3630   -2.0960   -0.6880 c         1 MOL      0.424545
    143 O21        -4.9940   -0.9250   -0.6650 o         1 MOL     -0.471032
    144 C45        -7.9520   -2.7880   -0.8120 c3        1 MOL     -0.528102
    145 C46        -9.3420   -2.8690   -0.1100 c3        1 MOL      0.214600
    146 C47       -10.4450   -2.8180   -1.1980 c3        1 MOL      0.090430
    147 C48       -11.9060   -3.0790   -0.7450 c3        1 MOL      0.062219
    148 N13       -12.7240   -3.1440   -1.9450 n4        1 MOL     -0.277052
    149 H67        -6.3280   -2.2830    2.0900 hn        1 MOL      0.324913
    150 H68        -6.3660   -3.5950    0.3650 h1        1 MOL      0.015042
    151 H69        -7.7160   -3.6160   -1.4850 hc        1 MOL      0.125905
    152 H70        -8.0700   -1.8950   -1.4290 hc        1 MOL      0.125905
    153 H71        -9.5430   -2.0970    0.6380 hc        1 MOL     -0.008190
    154 H72        -9.3430   -3.8490    0.3600 hc        1 MOL     -0.008190
    155 H73       -10.2960   -3.6500   -1.8730 hc        1 MOL      0.001118
    156 H74       -10.3510   -1.9230   -1.8090 hc        1 MOL      0.001118
    157 H75       -12.2570   -2.3580   -0.0110 hx        1 MOL      0.044083
    158 H76       -11.9380   -4.0140   -0.1880 hx        1 MOL      0.044083
    159 H77       -13.7070   -3.1300   -1.7090 hn        1 MOL      0.249793
    160 H78       -12.6470   -2.4110   -2.6340 hn        1 MOL      0.249793
    161 H79       -12.5460   -4.0820   -2.2840 hn        1 MOL      0.249793
    162 N14        -4.7540   -2.9740   -1.4620 n         1 MOL     -0.402492
    163 C49        -3.5080   -2.8000   -2.0940 c3        1 MOL      0.063982
    164 C50        -2.2750   -2.4770   -1.2050 c         1 MOL      0.404017
    165 O22        -1.5910   -1.4570   -1.4260 o         1 MOL     -0.555497
    166 C51        -3.1170   -3.9380   -2.9980 c3        1 MOL      0.137278
    167 C52        -4.1720   -4.4140   -4.0200 c3        1 MOL     -0.217768
    168 C53        -3.6980   -5.5890   -4.8350 c         1 MOL      0.744381
    169 O23        -4.1330   -6.7350   -4.4870 o         1 MOL     -0.650974
    170 O24        -2.9870   -5.4380   -5.8020 o         1 MOL     -0.650974
    171 H80        -5.2110   -3.8710   -1.5790 hn        1 MOL      0.300857
    172 H81        -3.6490   -1.9060   -2.7140 h1        1 MOL      0.043859
    173 H82        -2.9470   -4.8100   -2.3600 hc        1 MOL      0.012300
    174 H83        -2.2010   -3.7790   -3.5600 hc        1 MOL      0.012300
    175 H84        -4.4940   -3.6210   -4.6980 hc        1 MOL     -0.009239
    176 H85        -5.0510   -4.6870   -3.4450 hc        1 MOL     -0.009239
    177 N15        -2.0940   -3.1560   -0.0320 n         1 MOL     -0.237339
    178 C54        -2.5520   -4.4890    0.3430 c3        1 MOL     -0.101689
    179 H86        -2.2070   -5.2120   -0.3960 h1        1 MOL      0.049566
    180 H87        -2.1500   -4.7500    1.3210 h1        1 MOL      0.049566
    181 H88        -3.6410   -4.5030    0.3820 h1        1 MOL      0.049566
    182 H89        -1.3480   -2.8020    0.5480 hn        1 MOL      0.346361
    183 Ca1        -0.4540    0.7880   -1.3300 Ca        1 MOL      1.808048
    184 O25        -3.1360    1.0560   -0.9110 oh        1 MOL     -0.883886
    185 H90        -3.6220    0.2390   -0.8860 ho        1 MOL      0.412455
    186 H91        -3.8010    1.7340   -0.9680 ho        1 MOL      0.412455
    187 O26         0.8230   -0.4050   -3.3860 oh        1 MOL     -0.883886
    188 H92         0.5840   -0.8160   -4.2180 ho        1 MOL      0.412455
    189 H93         1.4760    0.2530   -3.6150 ho        1 MOL      0.412455
    190 O27        -2.0880    0.5450   -3.5550 oh        1 MOL     -0.883886
    191 H94        -2.9510    0.1410   -3.4620 ho        1 MOL      0.412455
    192 H95        -1.8180    0.3210   -4.4450 ho        1 MOL      0.412455
@<TRIPOS>BOND
     1    1    2 1   
     2    1    4 1   
     3    1    5 1   
     4    1    6 1   
     5    2    3 2   
     6    2    7 1   
     7    7    8 1   
     8    7   15 1   
     9    8    9 1   
    10    8   11 1   
    11    8   16 1   
    12    9   10 2   
    13    9   19 1   
    14   11   12 1   
    15   11   17 1   
    16   11   18 1   
    17   12   13 1   
    18   12   14 1   
    19   19   20 1   
    20   19   28 1   
    21   20   21 1   
    22   20   23 1   
    23   20   29 1   
    24   21   22 2   
    25   21   41 1   
    26   23   24 1   
    27   23   30 1   
    28   23   31 1   
    29   24   25 1   
    30   24   32 1   
    31   24   33 1   
    32   25   26 1   
    33   25   34 1   
    34   25   35 1   
    35   26   27 1   
    36   26   36 1   
    37   26   37 1   
    38   27   38 1   
    39   27   39 1   
    40   27   40 1   
    41   41   42 1   
    42   41   49 1   
    43   42   43 1   
    44   42   45 1   
    45   42   50 1   
    46   43   44 2   
    47   43   53 1   
    48   45   46 1   
    49   45   51 1   
    50   45   52 1   
    51   46   47 1   
    52   46   48 1   
    53   53   54 1   
    54   53   57 1   
    55   54   55 1   
    56   54   58 1   
    57   54   59 1   
    58   55   56 2   
    59   55   60 1   
    60   60   61 1   
    61   60   68 1   
    62   61   62 1   
    63   61   64 1   
    64   61   69 1   
    65   62   63 2   
    66   62   72 1   
    67   64   65 1   
    68   64   70 1   
    69   64   71 1   
    70   65   66 1   
    71   65   67 1   
    72   72   73 1   
    73   72   76 1   
    74   73   74 1   
    75   73   77 1   
    76   73   78 1   
    77   74   75 2   
    78   74   79 1   
    79   79   80 1   
    80   79   86 1   
    81   80   81 1   
    82   80   83 1   
    83   80   87 1   
    84   81   82 2   
    85   81   93 1   
    86   83   84 1   
    87   83   85 1   
    88   83   88 1   
    89   84   90 1   
    90   84   91 1   
    91   84   92 1   
    92   85   89 1   
    93   93   94 1   
    94   93  101 1   
    95   94   95 1   
    96   94   97 1   
    97   94  102 1   
    98   95   96 2   
    99   95  112 1   
   100   97   98 1   
   101   97   99 1   
   102   97  103 1   
   103   98  100 1   
   104   98  104 1   
   105   98  105 1   
   106   99  106 1   
   107   99  107 1   
   108   99  108 1   
   109  100  109 1   
   110  100  110 1   
   111  100  111 1   
   112  112  113 1   
   113  112  119 1   
   114  113  114 1   
   115  113  116 1   
   116  113  120 1   
   117  114  115 2   
   118  114  126 1   
   119  116  117 1   
   120  116  118 1   
   121  116  121 1   
   122  117  123 1   
   123  117  124 1   
   124  117  125 1   
   125  118  122 1   
   126  126  127 1   
   127  126  133 1   
   128  127  128 1   
   129  127  130 1   
   130  127  134 1   
   131  128  129 2   
   132  128  140 1   
   133  130  131 1   
   134  130  132 1   
   135  130  135 1   
   136  131  137 1   
   137  131  138 1   
   138  131  139 1   
   139  132  136 1   
   140  140  141 1   
   141  140  149 1   
   142  141  142 1   
   143  141  144 1   
   144  141  150 1   
   145  142  143 2   
   146  142  162 1   
   147  144  145 1   
   148  144  151 1   
   149  144  152 1   
   150  145  146 1   
   151  145  153 1   
   152  145  154 1   
   153  146  147 1   
   154  146  155 1   
   155  146  156 1   
   156  147  148 1   
   157  147  157 1   
   158  147  158 1   
   159  148  159 1   
   160  148  160 1   
   161  148  161 1   
   162  162  163 1   
   163  162  171 1   
   164  163  164 1   
   165  163  166 1   
   166  163  172 1   
   167  164  165 2   
   168  164  177 1   
   169  166  167 1   
   170  166  173 1   
   171  166  174 1   
   172  167  168 1   
   173  167  175 1   
   174  167  176 1   
   175  168  169 1   
   176  168  170 1   
   177  177  178 1   
   178  177  182 1   
   179  178  179 1   
   180  178  180 1   
   181  178  181 1   
   182  184  185 1   
   183  184  186 1   
   184  187  188 1   
   185  187  189 1   
   186  190  191 1   
   187  190  192 1   
@<TRIPOS>SUBSTRUCTURE
     1 MOL         1 TEMP              0 ****  ****    0 ROOT
