@<TRIPOS>MOLECULE
MOL
  195   189     1     0     0
SMALL
resp


@<TRIPOS>ATOM
      1 C1         -6.2210   -2.6550    5.3890 c3        1 MOL     -0.209942
      2 C2         -5.6000   -2.2390    4.0210 c         1 MOL      0.700520
      3 O1         -4.9770   -3.0810    3.3360 o         1 MOL     -0.623228
      4 H1         -6.1600   -1.8170    6.0840 hc        1 MOL      0.054530
      5 H2         -7.2650   -2.9320    5.2450 hc        1 MOL      0.054530
      6 H3         -5.6710   -3.5030    5.7950 hc        1 MOL      0.054530
      7 N1         -5.6310   -0.9720    3.6810 n         1 MOL     -0.480592
      8 C3         -5.2530   -0.3060    2.4600 c3        1 MOL      0.262381
      9 C4         -3.7220   -0.1160    2.3530 c         1 MOL      0.049774
     10 O2         -3.2770    0.7040    1.5130 o         1 MOL     -0.169591
     11 C5         -6.0360    1.0690    2.2220 c3        1 MOL     -0.084604
     12 C6         -6.5050    1.7340    3.5150 c         1 MOL      0.650816
     13 O3         -6.2290    2.9190    3.6740 o         1 MOL     -0.687722
     14 O4         -7.3580    1.1420    4.2570 o         1 MOL     -0.687722
     15 H4         -6.2010   -0.3850    4.2740 hn        1 MOL      0.209976
     16 H5         -5.4830   -0.8850    1.5690 h1        1 MOL      0.001495
     17 H6         -6.9260    0.7950    1.6670 hc        1 MOL      0.035363
     18 H7         -5.4170    1.7450    1.6310 hc        1 MOL      0.035363
     19 N2         -2.8400   -0.7900    3.1390 n         1 MOL     -0.427477
     20 C7         -1.3100   -0.6570    3.0210 c3        1 MOL      0.165777
     21 C8         -0.6380   -2.0030    2.6610 c         1 MOL      0.443885
     22 O5         -1.0800   -3.0350    3.1310 o         1 MOL     -0.474508
     23 C9         -0.7600   -0.1020    4.3140 c3        1 MOL     -0.391652
     24 C10        -1.2000    1.3830    4.3270 c3        1 MOL      0.045407
     25 C11        -0.7360    1.9870    5.6290 c3        1 MOL     -0.309338
     26 C12        -0.9320    3.5310    5.6860 c3        1 MOL      0.108370
     27 N3         -0.3350    4.0820    6.9580 n4        1 MOL     -0.469136
     28 H8         -3.2820   -1.5700    3.5960 hn        1 MOL      0.307742
     29 H9         -1.0340   -0.0240    2.1800 h1        1 MOL      0.126606
     30 H10         0.3160   -0.2710    4.3040 hc        1 MOL      0.139026
     31 H11        -1.0990   -0.5550    5.2480 hc        1 MOL      0.139026
     32 H12        -2.2490    1.5830    4.1210 hc        1 MOL      0.114745
     33 H13        -0.6090    1.9220    3.5820 hc        1 MOL      0.114745
     34 H14         0.3470    1.8620    5.7340 hc        1 MOL      0.104057
     35 H15        -1.3500    1.4510    6.3580 hc        1 MOL      0.104057
     36 H16        -2.0060    3.6810    5.5330 hx        1 MOL      0.100593
     37 H17        -0.3880    4.0140    4.8720 hx        1 MOL      0.100593
     38 H18        -0.8120    3.6210    7.7250 hn        1 MOL      0.354219
     39 H19         0.6510    3.8790    7.0260 hn        1 MOL      0.354219
     40 H20        -0.5970    5.0570    6.9970 hn        1 MOL      0.354219
     41 N4          0.3500   -2.0660    1.6980 n         1 MOL     -0.308447
     42 C13         1.0240   -0.9650    0.9300 c3        1 MOL     -0.041662
     43 C14         1.7660    0.1160    1.7180 c         1 MOL      0.334669
     44 O6          1.2050    1.1970    1.8960 o         1 MOL     -0.533864
     45 C15         0.1790   -0.4940   -0.2620 c3        1 MOL     -0.238796
     46 C16        -0.3270   -1.5520   -1.2080 c         1 MOL      0.149018
     47 O7          0.2910   -2.6300   -1.2270 o         1 MOL     -0.571693
     48 O8         -1.1270   -1.2690   -2.1460 o         1 MOL     -0.571693
     49 H21         0.5370   -2.9780    1.3210 hn        1 MOL      0.202797
     50 H22         1.8700   -1.4720    0.4640 h1        1 MOL      0.044747
     51 H23         0.7830    0.2160   -0.8240 hc        1 MOL      0.262729
     52 H24        -0.7210    0.0290    0.0550 hc        1 MOL      0.262729
     53 N5          2.9240   -0.1490    2.2990 n         1 MOL     -0.325788
     54 C17         3.6930   -1.3500    2.2220 c3        1 MOL      0.051717
     55 C18         4.8760   -1.4490    3.1600 c         1 MOL      0.546825
     56 O9          4.9980   -0.7630    4.1720 o         1 MOL     -0.572841
     57 H25         3.1440    0.6160    2.9090 hn        1 MOL      0.289473
     58 H26         3.9780   -1.5920    1.2010 h1        1 MOL      0.049068
     59 H27         3.0460   -2.1650    2.5300 h1        1 MOL      0.049068
     60 N6          5.9250   -2.2190    2.9010 n         1 MOL     -0.410234
     61 C19         5.9240   -3.2780    1.9150 c3        1 MOL      0.069776
     62 C20         6.7630   -2.9130    0.7350 c         1 MOL      0.349912
     63 O10         7.7740   -2.2290    0.8420 o         1 MOL     -0.438849
     64 C21         6.3560   -4.6220    2.5230 c3        1 MOL     -0.108936
     65 C22         7.5670   -4.6490    3.4330 c         1 MOL      0.778603
     66 O11         8.2060   -3.6290    3.7330 o         1 MOL     -0.680160
     67 O12         7.7100   -5.6780    4.0510 o         1 MOL     -0.680160
     68 H28         6.7910   -2.1880    3.4180 hn        1 MOL      0.330366
     69 H29         4.9200   -3.3890    1.5130 h1        1 MOL     -0.016394
     70 H30         6.5790   -5.3480    1.7420 hc        1 MOL     -0.013536
     71 H31         5.4440   -4.9390    3.0360 hc        1 MOL     -0.013536
     72 N7          6.2860   -3.4370   -0.3900 n         1 MOL     -0.147392
     73 C23         6.9880   -3.0850   -1.7000 c3        1 MOL     -0.420302
     74 C24         6.6090   -1.6900   -2.2230 c         1 MOL      0.599442
     75 O13         7.4810   -1.1150   -2.9330 o         1 MOL     -0.526013
     76 H32         5.5470   -4.1220   -0.3550 hn        1 MOL      0.193899
     77 H33         6.8120   -3.8230   -2.4870 h1        1 MOL      0.179277
     78 H34         8.0610   -3.1000   -1.4810 h1        1 MOL      0.179277
     79 N8          5.4000   -1.1460   -1.8730 n         1 MOL     -0.458931
     80 C25         4.8750    0.1920   -2.1350 c3        1 MOL     -0.007634
     81 C26         5.2740    1.2170   -1.0980 c         1 MOL      0.696018
     82 O14         5.5230    0.9860    0.1140 o         1 MOL     -0.527846
     83 C27         3.3270    0.1970   -2.2970 c3        1 MOL      0.483111
     84 C28         2.8460   -0.5470   -3.5000 c3        1 MOL     -0.318941
     85 O15         2.7720    1.4830   -2.4350 oh        1 MOL     -0.606727
     86 H35         4.7890   -1.7820   -1.3760 hn        1 MOL      0.196118
     87 H36         5.2340    0.6060   -3.0830 h1        1 MOL      0.056397
     88 H37         2.9620   -0.2100   -1.3510 h1        1 MOL     -0.037171
     89 H38         2.0020    1.5200   -1.8450 ho        1 MOL      0.338705
     90 H39         2.9080    0.0770   -4.3950 hc        1 MOL      0.078765
     91 H40         3.4590   -1.4350   -3.6140 hc        1 MOL      0.078765
     92 H41         1.7830   -0.7810   -3.4250 hc        1 MOL      0.078765
     93 N9          5.2310    2.4820   -1.5890 n         1 MOL     -0.617790
     94 C29         5.5760    3.7130   -0.6870 c3        1 MOL     -0.133700
     95 C30         4.3110    4.4300   -0.1780 c         1 MOL      0.453787
     96 O16         4.4570    5.3690    0.6050 o         1 MOL     -0.542793
     97 C31         6.5660    4.6550   -1.4750 c3        1 MOL      0.148320
     98 C32         5.8650    5.4640   -2.6090 c3        1 MOL      0.045222
     99 C33         7.8300    3.8880   -1.9020 c3        1 MOL     -0.008411
    100 C34         6.5810    6.4880   -3.5340 c3        1 MOL     -0.221489
    101 H42         5.0190    2.6090   -2.5700 hn        1 MOL      0.330018
    102 H43         6.0890    3.4010    0.2150 h1        1 MOL      0.173833
    103 H44         6.9030    5.4090   -0.7600 hc        1 MOL     -0.000339
    104 H45         4.9910    5.9520   -2.1830 hc        1 MOL      0.006786
    105 H46         5.3690    4.8030   -3.3090 hc        1 MOL      0.006786
    106 H47         8.4990    4.6480   -2.3070 hc        1 MOL      0.004099
    107 H48         8.2880    3.4140   -1.0270 hc        1 MOL      0.004099
    108 H49         7.6400    3.1860   -2.7110 hc        1 MOL      0.004099
    109 H50         5.9710    6.9130   -4.3300 hc        1 MOL      0.053635
    110 H51         6.9320    7.3440   -2.9610 hc        1 MOL      0.053635
    111 H52         7.3950    5.9560   -4.0460 hc        1 MOL      0.053635
    112 N10         3.1480    4.0380   -0.6780 n         1 MOL     -0.141112
    113 C35         1.7950    4.6360   -0.3060 c3        1 MOL     -0.178887
    114 C36         0.5980    3.6910   -0.3800 c         1 MOL      0.711918
    115 O17         0.5860    2.6770   -0.9930 o         1 MOL     -0.539359
    116 C37         1.3670    5.8790   -1.2110 c3        1 MOL      0.334257
    117 C38         1.0620    5.4980   -2.6840 c3        1 MOL     -0.244745
    118 O18         2.4610    6.8060   -1.2430 oh        1 MOL     -0.601606
    119 H53         3.1290    3.2220   -1.2810 hn        1 MOL      0.142500
    120 H54         1.9140    4.9630    0.7280 h1        1 MOL      0.079854
    121 H55         0.5060    6.3500   -0.7300 h1        1 MOL     -0.003081
    122 H56         2.9780    6.7720   -0.4330 ho        1 MOL      0.371303
    123 H57         1.9580    5.3540   -3.2790 hc        1 MOL      0.078074
    124 H58         0.3410    4.6910   -2.8410 hc        1 MOL      0.078074
    125 H59         0.3860    6.2610   -3.0800 hc        1 MOL      0.078074
    126 N11        -0.5140    4.0530    0.2900 n         1 MOL     -0.554305
    127 C39        -1.7600    3.3410    0.3780 c3        1 MOL     -0.071944
    128 C40        -2.6100    3.1530   -0.9290 c         1 MOL      0.625842
    129 O19        -2.6910    4.0220   -1.7890 o         1 MOL     -0.592200
    130 C41        -2.6990    3.8280    1.4950 c3        1 MOL      0.695265
    131 C42        -3.4250    5.0810    1.1440 c3        1 MOL     -0.497587
    132 O20        -1.9270    4.1070    2.6660 oh        1 MOL     -0.735160
    133 H60        -0.3920    4.8090    0.9430 hn        1 MOL      0.317830
    134 H61        -1.5430    2.3300    0.7200 h1        1 MOL     -0.061361
    135 H62        -3.4180    3.0440    1.7370 h1        1 MOL     -0.118918
    136 H63        -2.5790    4.1770    3.3680 ho        1 MOL      0.350804
    137 H64        -3.7280    5.5920    2.0530 hc        1 MOL      0.115927
    138 H65        -2.7760    5.8060    0.6600 hc        1 MOL      0.115927
    139 H66        -4.3380    4.8660    0.5850 hc        1 MOL      0.115927
    140 N12        -3.2290    1.9760   -0.9810 n         1 MOL     -0.332912
    141 C43        -4.1110    1.5690   -2.1150 c3        1 MOL     -0.101821
    142 C44        -4.3190    0.0790   -2.2840 c         1 MOL      0.719827
    143 O21        -4.5310   -0.3780   -3.4240 o         1 MOL     -0.646847
    144 C45        -5.4970    2.1500   -1.8770 c3        1 MOL     -0.269012
    145 C46        -6.4990    2.0440   -3.0010 c3        1 MOL      0.273236
    146 C47        -6.0090    2.8140   -4.2550 c3        1 MOL     -0.002601
    147 C48        -7.1410    2.7940   -5.2690 c3        1 MOL      0.000256
    148 N13        -6.7180    3.6690   -6.3860 n4        1 MOL     -0.296109
    149 H67        -3.1720    1.3830   -0.1700 hn        1 MOL      0.154077
    150 H68        -3.7160    1.9760   -3.0530 h1        1 MOL      0.098806
    151 H69        -5.3120    3.1800   -1.5730 hc        1 MOL      0.068885
    152 H70        -5.9610    1.6800   -1.0140 hc        1 MOL      0.068885
    153 H71        -7.4790    2.4300   -2.7440 hc        1 MOL     -0.046120
    154 H72        -6.6650    0.9810   -3.1600 hc        1 MOL     -0.046120
    155 H73        -5.0830    2.4590   -4.7060 hc        1 MOL      0.034898
    156 H74        -5.9760    3.8680   -3.9730 hc        1 MOL      0.034898
    157 H75        -7.9390    3.2850   -4.6970 hx        1 MOL      0.075815
    158 H76        -7.4020    1.7700   -5.5460 hx        1 MOL      0.075815
    159 H77        -7.4030    3.7040   -7.1350 hn        1 MOL      0.294212
    160 H78        -6.6420    4.6280   -6.0990 hn        1 MOL      0.294212
    161 H79        -5.8650    3.3480   -6.8240 hn        1 MOL      0.294212
    162 N14        -4.3770   -0.7320   -1.2160 n         1 MOL     -0.257897
    163 C49        -4.6420   -2.1700   -1.2230 c3        1 MOL     -0.441084
    164 C50        -6.1820   -2.4640   -1.0080 c         1 MOL      0.477808
    165 O22        -6.8510   -2.0720   -0.0470 o         1 MOL     -0.478957
    166 C51        -3.6340   -2.8450   -0.2030 c3        1 MOL      0.888182
    167 C52        -3.5840   -4.3690   -0.1370 c3        1 MOL     -0.463101
    168 C53        -3.3930   -4.8530   -1.5290 c         1 MOL      0.613955
    169 O23        -4.4130   -5.0220   -2.2520 o         1 MOL     -0.721476
    170 O24        -2.2680   -5.0950   -2.0640 o         1 MOL     -0.721476
    171 H80        -4.0700   -0.3650   -0.3160 hn        1 MOL      0.150088
    172 H81        -4.3720   -2.5120   -2.2170 h1        1 MOL      0.214122
    173 H82        -3.9660   -2.5290    0.7870 hc        1 MOL     -0.165443
    174 H83        -2.6480   -2.3950   -0.2730 hc        1 MOL     -0.165443
    175 H84        -4.4880   -4.8420    0.2420 hc        1 MOL      0.113920
    176 H85        -2.7120   -4.6120    0.4550 hc        1 MOL      0.113920
    177 N15        -6.7550   -3.1580   -1.9850 n         1 MOL     -0.245708
    178 C54        -8.1760   -3.5970   -1.9120 c3        1 MOL     -0.169924
    179 H86        -8.2860   -4.5560   -2.4180 h1        1 MOL      0.087658
    180 H87        -8.4720   -3.7000   -0.8690 h1        1 MOL      0.087658
    181 H88        -8.8110   -2.8560   -2.3980 h1        1 MOL      0.087658
    182 H89        -6.1680   -3.4710   -2.7400 hn        1 MOL      0.313322
    183 Ca1         0.1760   -4.9960   -2.4100 Ca        1 MOL      1.634908
    184 O25         2.1450   -3.9740   -3.8350 oh        1 MOL     -0.808837
    185 H90         3.0200   -4.3600   -3.8560 ho        1 MOL      0.403485
    186 H91         2.1100   -3.4250   -4.6230 ho        1 MOL      0.403485
    187 O26         1.5450   -6.7920   -3.7980 oh        1 MOL     -0.808837
    188 H92         2.4090   -7.0610   -3.4820 ho        1 MOL      0.403485
    189 H93         1.2750   -7.5120   -4.3740 ho        1 MOL      0.403485
    190 O27        -1.5030   -6.0660   -4.4730 oh        1 MOL     -0.808837
    191 H94        -2.1290   -5.5680   -3.9430 ho        1 MOL      0.403485
    192 H95        -1.5800   -6.9640   -4.1660 ho        1 MOL      0.403485
    193 O28        -0.9750   -3.0500   -3.9880 oh        1 MOL     -0.808837
    194 H96        -0.9840   -2.3750   -3.3080 ho        1 MOL      0.403485
    195 H97        -1.0690   -2.5570   -4.8020 ho        1 MOL      0.403485
@<TRIPOS>BOND
     1    1    2 1   
     2    1    4 1   
     3    1    5 1   
     4    1    6 1   
     5    2    3 2   
     6    2    7 1   
     7    7    8 1   
     8    7   15 1   
     9    8    9 1   
    10    8   11 1   
    11    8   16 1   
    12    9   10 2   
    13    9   19 1   
    14   11   12 1   
    15   11   17 1   
    16   11   18 1   
    17   12   13 1   
    18   12   14 1   
    19   19   20 1   
    20   19   28 1   
    21   20   21 1   
    22   20   23 1   
    23   20   29 1   
    24   21   22 2   
    25   21   41 1   
    26   23   24 1   
    27   23   30 1   
    28   23   31 1   
    29   24   25 1   
    30   24   32 1   
    31   24   33 1   
    32   25   26 1   
    33   25   34 1   
    34   25   35 1   
    35   26   27 1   
    36   26   36 1   
    37   26   37 1   
    38   27   38 1   
    39   27   39 1   
    40   27   40 1   
    41   41   42 1   
    42   41   49 1   
    43   42   43 1   
    44   42   45 1   
    45   42   50 1   
    46   43   44 2   
    47   43   53 1   
    48   45   46 1   
    49   45   51 1   
    50   45   52 1   
    51   46   47 1   
    52   46   48 1   
    53   53   54 1   
    54   53   57 1   
    55   54   55 1   
    56   54   58 1   
    57   54   59 1   
    58   55   56 2   
    59   55   60 1   
    60   60   61 1   
    61   60   68 1   
    62   61   62 1   
    63   61   64 1   
    64   61   69 1   
    65   62   63 2   
    66   62   72 1   
    67   64   65 1   
    68   64   70 1   
    69   64   71 1   
    70   65   66 1   
    71   65   67 1   
    72   72   73 1   
    73   72   76 1   
    74   73   74 1   
    75   73   77 1   
    76   73   78 1   
    77   74   75 2   
    78   74   79 1   
    79   79   80 1   
    80   79   86 1   
    81   80   81 1   
    82   80   83 1   
    83   80   87 1   
    84   81   82 2   
    85   81   93 1   
    86   83   84 1   
    87   83   85 1   
    88   83   88 1   
    89   84   90 1   
    90   84   91 1   
    91   84   92 1   
    92   85   89 1   
    93   93   94 1   
    94   93  101 1   
    95   94   95 1   
    96   94   97 1   
    97   94  102 1   
    98   95   96 2   
    99   95  112 1   
   100   97   98 1   
   101   97   99 1   
   102   97  103 1   
   103   98  100 1   
   104   98  104 1   
   105   98  105 1   
   106   99  106 1   
   107   99  107 1   
   108   99  108 1   
   109  100  109 1   
   110  100  110 1   
   111  100  111 1   
   112  112  113 1   
   113  112  119 1   
   114  113  114 1   
   115  113  116 1   
   116  113  120 1   
   117  114  115 2   
   118  114  126 1   
   119  116  117 1   
   120  116  118 1   
   121  116  121 1   
   122  117  123 1   
   123  117  124 1   
   124  117  125 1   
   125  118  122 1   
   126  126  127 1   
   127  126  133 1   
   128  127  128 1   
   129  127  130 1   
   130  127  134 1   
   131  128  129 2   
   132  128  140 1   
   133  130  131 1   
   134  130  132 1   
   135  130  135 1   
   136  131  137 1   
   137  131  138 1   
   138  131  139 1   
   139  132  136 1   
   140  140  141 1   
   141  140  149 1   
   142  141  142 1   
   143  141  144 1   
   144  141  150 1   
   145  142  143 2   
   146  142  162 1   
   147  144  145 1   
   148  144  151 1   
   149  144  152 1   
   150  145  146 1   
   151  145  153 1   
   152  145  154 1   
   153  146  147 1   
   154  146  155 1   
   155  146  156 1   
   156  147  148 1   
   157  147  157 1   
   158  147  158 1   
   159  148  159 1   
   160  148  160 1   
   161  148  161 1   
   162  162  163 1   
   163  162  171 1   
   164  163  164 1   
   165  163  166 1   
   166  163  172 1   
   167  164  165 2   
   168  164  177 1   
   169  166  167 1   
   170  166  173 1   
   171  166  174 1   
   172  167  168 1   
   173  167  175 1   
   174  167  176 1   
   175  168  169 1   
   176  168  170 1   
   177  177  178 1   
   178  177  182 1   
   179  178  179 1   
   180  178  180 1   
   181  178  181 1   
   182  184  185 1   
   183  184  186 1   
   184  187  188 1   
   185  187  189 1   
   186  190  191 1   
   187  190  192 1   
   188  193  194 1   
   189  193  195 1   
@<TRIPOS>SUBSTRUCTURE
     1 MOL         1 TEMP              0 ****  ****    0 ROOT
