@<TRIPOS>MOLECULE
MOL
  189   185     1     0     0
SMALL
resp


@<TRIPOS>ATOM
      1 C1          4.0710    3.9270   -3.4260 c3        1 MOL     -0.254057
      2 C2          4.9380    3.0960   -2.4060 c         1 MOL      0.769829
      3 O1          4.3240    2.5940   -1.4150 o         1 MOL     -0.725589
      4 H1          3.0140    3.7220   -3.2550 hc        1 MOL      0.062093
      5 H2          4.2630    4.9900   -3.2840 hc        1 MOL      0.062093
      6 H3          4.3350    3.6420   -4.4440 hc        1 MOL      0.062093
      7 N1          6.2360    2.8970   -2.7510 n         1 MOL     -0.694742
      8 C3          7.2080    1.9340   -2.1730 c3        1 MOL      0.286502
      9 C4          6.6520    0.6670   -1.6740 c         1 MOL      0.158178
     10 O2          6.0490    0.4330   -0.5930 o         1 MOL     -0.325383
     11 C5          8.1150    2.5740   -1.0700 c3        1 MOL     -0.153037
     12 C6          7.4930    3.6620   -0.1820 c         1 MOL      0.774583
     13 O3          6.5160    3.3110    0.5210 o         1 MOL     -0.731970
     14 O4          7.9930    4.8060   -0.2230 o         1 MOL     -0.731970
     15 H4          6.4950    3.4250   -3.5830 hn        1 MOL      0.347422
     16 H5          7.9380    1.7770   -2.9710 h1        1 MOL      0.042631
     17 H6          8.9870    2.9170   -1.6160 hc        1 MOL      0.014748
     18 H7          8.4610    1.7890   -0.3880 hc        1 MOL      0.014748
     19 N2          6.5170   -0.3040   -2.6100 n         1 MOL     -0.332515
     20 C7          5.9050   -1.6360   -2.6900 c3        1 MOL     -0.029903
     21 C8          6.6380   -2.7570   -1.9210 c         1 MOL      0.433043
     22 O5          7.1190   -3.7690   -2.5080 o         1 MOL     -0.534511
     23 C9          4.3690   -1.5420   -2.3200 c3        1 MOL      0.185538
     24 C10         3.5080   -2.7790   -2.4040 c3        1 MOL     -0.165963
     25 C11         3.5920   -0.4800   -3.1400 c3        1 MOL     -0.198729
     26 C12         3.5120   -3.4940   -3.7840 c3        1 MOL     -0.100683
     27 H8          6.9540   -0.0700   -3.4990 hn        1 MOL      0.244045
     28 H9          6.0040   -1.8930   -3.7480 h1        1 MOL      0.046081
     29 H10         4.2900   -1.1880   -1.2910 hc        1 MOL      0.053153
     30 H11         2.4930   -2.4870   -2.1260 hc        1 MOL      0.062246
     31 H12         3.9510   -3.5210   -1.7300 hc        1 MOL      0.062246
     32 H13         4.1850    0.4310   -3.1000 hc        1 MOL      0.038345
     33 H14         3.3080   -0.6490   -4.1760 hc        1 MOL      0.038345
     34 H15         2.7210   -0.0750   -2.6130 hc        1 MOL      0.038345
     35 H16         3.4600   -2.6980   -4.5280 hc        1 MOL      0.018994
     36 H17         4.4390   -4.0470   -3.8460 hc        1 MOL      0.018994
     37 H18         2.8100   -4.2890   -4.0180 hc        1 MOL      0.018994
     38 N3          6.9000   -2.4620   -0.6430 n         1 MOL     -0.124120
     39 C13         7.7470   -3.3070    0.2320 c3        1 MOL      0.022318
     40 C14         6.9610   -4.5930    0.5610 c         1 MOL      0.583333
     41 O6          7.5120   -5.6770    0.3090 o         1 MOL     -0.604254
     42 C15         8.1410   -2.4990    1.4650 c3        1 MOL     -0.363112
     43 C16         8.9330   -1.1920    1.2370 c         1 MOL      0.859886
     44 O7          8.6150   -0.1950    1.8650 o         1 MOL     -0.722201
     45 O8         10.0530   -1.2530    0.6450 o         1 MOL     -0.722201
     46 H19         6.6710   -1.5850   -0.2130 hn        1 MOL      0.137955
     47 H20         8.6390   -3.5220   -0.3630 h1        1 MOL      0.056499
     48 H21         8.5930   -3.2040    2.1550 hc        1 MOL      0.073205
     49 H22         7.2280   -2.3160    2.0230 hc        1 MOL      0.073205
     50 N4          5.6780   -4.6360    0.8680 n         1 MOL     -0.505703
     51 C17         4.7210   -3.6080    1.3220 c3        1 MOL      0.080036
     52 C18         3.4880   -4.3120    1.8910 c         1 MOL      0.555549
     53 O9          3.3880   -5.5480    1.8260 o         1 MOL     -0.584422
     54 H23         5.3150   -5.5780    0.8030 hn        1 MOL      0.292220
     55 H24         4.4150   -3.0900    0.4120 h1        1 MOL      0.051820
     56 H25         5.1060   -2.9090    2.0590 h1        1 MOL      0.051820
     57 N5          2.5330   -3.6360    2.4250 n         1 MOL     -0.536714
     58 C19         2.3060   -2.1890    2.5640 c3        1 MOL      0.450467
     59 C20         2.4120   -1.2750    1.2640 c         1 MOL      0.117839
     60 O10         3.5290   -0.7760    0.9260 o         1 MOL     -0.569554
     61 C21         3.1520   -1.5950    3.6950 c3        1 MOL     -0.263672
     62 C22         2.6560   -0.1740    4.0170 c         1 MOL      0.677185
     63 O11         1.6980   -0.0490    4.8360 o         1 MOL     -0.680614
     64 O12         3.0070    0.7590    3.2660 o         1 MOL     -0.680614
     65 H26         1.7160   -4.1730    2.7070 hn        1 MOL      0.295307
     66 H27         1.3000   -2.0160    2.9620 h1        1 MOL     -0.044137
     67 H28         4.1760   -1.6130    3.3200 hc        1 MOL      0.027240
     68 H29         2.9900   -2.1800    4.6050 hc        1 MOL      0.027240
     69 N6          1.3180   -0.9760    0.4780 n         1 MOL     -0.033147
     70 C23        -0.1090   -1.3360    0.7570 c3        1 MOL     -0.192359
     71 C24        -0.6330   -2.6540    0.3360 c         1 MOL      0.484922
     72 O13        -0.0860   -3.2920   -0.5110 o         1 MOL     -0.478671
     73 H30         1.5400   -0.4220   -0.3340 hn        1 MOL      0.221889
     74 H31        -0.8150   -0.5860    0.4110 h1        1 MOL      0.125524
     75 H32        -0.2850   -1.1620    1.8230 h1        1 MOL      0.125524
     76 N7         -1.7180   -3.1450    0.9660 n         1 MOL     -0.387784
     77 C25        -2.4120   -4.3160    0.5660 c3        1 MOL      0.020914
     78 C26        -3.2750   -4.2530   -0.7750 c         1 MOL      0.345341
     79 O14        -3.5600   -5.2830   -1.4120 o         1 MOL     -0.537877
     80 C27        -3.2000   -4.9660    1.6730 c3        1 MOL      0.235756
     81 C28        -4.3560   -4.2060    2.3700 c3        1 MOL     -0.634874
     82 C29        -5.6000   -4.0620    1.4360 c         1 MOL      0.608728
     83 N8         -6.3700   -5.1160    1.2540 n         1 MOL     -0.678113
     84 O15        -5.8090   -3.0380    0.8010 o         1 MOL     -0.493954
     85 H33        -2.0730   -2.6600    1.7690 hn        1 MOL      0.247349
     86 H34        -1.6430   -5.0380    0.3100 h1        1 MOL      0.097819
     87 H35        -2.3940   -5.2250    2.3460 hc        1 MOL     -0.022955
     88 H36        -3.5610   -5.9440    1.3530 hc        1 MOL     -0.022955
     89 H37        -4.0610   -3.2130    2.7090 hc        1 MOL      0.191180
     90 H38        -4.6340   -4.8110    3.2260 hc        1 MOL      0.191180
     91 H39        -6.1100   -5.8870    1.8530 hn        1 MOL      0.347645
     92 H40        -7.1600   -5.0530    0.6220 hn        1 MOL      0.347645
     93 N9         -3.5490   -3.0310   -1.1990 n         1 MOL      0.048010
     94 C30        -3.9930   -2.6490   -2.6040 c3        1 MOL     -0.249384
     95 C31        -5.4140   -2.0540   -2.7950 c         1 MOL      0.352945
     96 O16        -5.7830   -1.6600   -3.9330 o         1 MOL     -0.548613
     97 C32        -2.9320   -1.8480   -3.4170 c3        1 MOL      0.352461
     98 C33        -1.6670   -2.6830   -3.5490 c3        1 MOL     -0.315243
     99 C34        -2.6230   -0.5300   -2.7000 c3        1 MOL     -0.315243
    100 H41        -3.3760   -2.3050   -0.5200 hn        1 MOL      0.116703
    101 H42        -4.0880   -3.5630   -3.1890 h1        1 MOL      0.126130
    102 H43        -3.2400   -1.6490   -4.4440 hc        1 MOL     -0.003285
    103 H44        -0.8620   -1.9810   -3.7690 hc        1 MOL      0.066360
    104 H45        -1.4540   -3.1940   -2.6080 hc        1 MOL      0.066360
    105 H46        -1.7250   -3.2080   -4.5060 hc        1 MOL      0.066360
    106 H47        -1.9430   -0.7010   -1.8620 hc        1 MOL      0.066360
    107 H48        -2.1340    0.1470   -3.4110 hc        1 MOL      0.066360
    108 H49        -3.5910   -0.1560   -2.3640 hc        1 MOL      0.066360
    109 N10        -6.2730   -1.9720   -1.7850 n         1 MOL     -0.096966
    110 C35        -7.5940   -1.3530   -1.8400 c3        1 MOL      0.040723
    111 C36        -7.6370    0.1780   -1.5510 c         1 MOL      0.379646
    112 O17        -8.6520    0.7760   -1.8480 o         1 MOL     -0.524022
    113 C37        -8.5210   -2.1080   -0.9950 c3        1 MOL     -0.153848
    114 C38        -8.8390   -3.5070   -1.5650 c         1 MOL      0.645734
    115 N11        -9.0870   -3.6580   -2.8550 n         1 MOL     -0.778645
    116 O18        -8.8250   -4.3700   -0.7630 o         1 MOL     -0.559714
    117 H50        -5.9930   -2.3850   -0.9080 hn        1 MOL      0.145992
    118 H51        -7.8710   -1.4440   -2.8950 h1        1 MOL      0.060504
    119 H52        -9.4570   -1.5530   -0.8920 hc        1 MOL      0.035717
    120 H53        -8.0520   -2.2020   -0.0190 hc        1 MOL      0.035717
    121 H54        -9.2490   -2.8800   -3.4750 hn        1 MOL      0.362138
    122 H55        -9.2980   -4.6040   -3.1530 hn        1 MOL      0.362138
    123 N12        -6.5900    0.7910   -0.9590 n         1 MOL     -0.251591
    124 C39        -6.6780    2.1100   -0.4690 c3        1 MOL      0.299713
    125 C40        -5.2470    2.7040   -0.2910 c         1 MOL      0.189236
    126 O19        -4.3450    1.8970   -0.1530 o         1 MOL     -0.412909
    127 C41        -7.5290    2.0600    0.7910 c3        1 MOL     -0.240717
    128 C42        -7.2240    0.9750    1.7950 ca        1 MOL      0.129630
    129 C43        -8.1710   -0.0860    1.9530 ca        1 MOL     -0.172357
    130 C44        -6.1330    1.0250    2.6980 ca        1 MOL     -0.172357
    131 C45        -7.9660   -1.0670    2.9670 ca        1 MOL     -0.303872
    132 C46        -5.8970   -0.0270    3.5750 ca        1 MOL     -0.303872
    133 C47        -6.7730   -1.0950    3.7020 ca        1 MOL      0.404606
    134 O20        -6.5250   -2.0780    4.6000 oh        1 MOL     -0.509951
    135 H56        -5.6900    0.3400   -0.9250 hn        1 MOL      0.181410
    136 H57        -7.0940    2.8340   -1.1700 h1        1 MOL     -0.002306
    137 H58        -8.6020    2.0670    0.6230 hc        1 MOL      0.056299
    138 H59        -7.2390    2.9850    1.2870 hc        1 MOL      0.056299
    139 H60        -9.0310   -0.0830    1.3030 ha        1 MOL      0.165307
    140 H61        -5.4350    1.8490    2.7830 ha        1 MOL      0.165307
    141 H62        -8.6580   -1.8880    3.0590 ha        1 MOL      0.150111
    142 H63        -4.9710   -0.0350    4.1330 ha        1 MOL      0.150111
    143 H64        -7.1390   -2.8220    4.6630 ho        1 MOL      0.347551
    144 N13        -5.1090    4.0030    0.0080 n         1 MOL     -0.308554
    145 C48        -3.9740    4.7500    0.7210 c3        1 MOL      0.008105
    146 C49        -2.6370    4.9000    0.0390 c         1 MOL      0.440845
    147 O21        -1.9330    5.8890    0.2180 o         1 MOL     -0.450503
    148 C50        -3.8390    4.2700    2.1810 c3        1 MOL     -0.046785
    149 C51        -2.9070    5.0320    3.1340 c3        1 MOL     -0.434556
    150 C52        -3.2410    6.4640    3.2690 c         1 MOL      0.784546
    151 O22        -2.4040    7.2900    3.6560 o         1 MOL     -0.745301
    152 O23        -4.4180    6.7860    2.9440 o         1 MOL     -0.745301
    153 H65        -5.8990    4.6170   -0.1560 hn        1 MOL      0.271891
    154 H66        -4.3770    5.7660    0.8010 h1        1 MOL      0.080815
    155 H67        -3.5850    3.2200    2.2430 hc        1 MOL      0.055608
    156 H68        -4.8350    4.2680    2.6230 hc        1 MOL      0.055608
    157 H69        -1.8760    4.9670    2.8100 hc        1 MOL      0.128535
    158 H70        -2.8830    4.5720    4.1260 hc        1 MOL      0.128535
    159 N14        -2.2830    3.9460   -0.8260 n         1 MOL     -0.326072
    160 C53        -1.1700    4.1080   -1.7530 c3        1 MOL     -0.133221
    161 C54        -1.4540    4.8770   -3.0720 c         1 MOL      0.490202
    162 O24        -0.5650    5.1290   -3.8840 o         1 MOL     -0.530646
    163 C55        -0.4860    2.7000   -2.0520 c3        1 MOL     -0.243117
    164 C56        -0.3650    1.8510   -0.7360 c3        1 MOL      0.303017
    165 C57         0.8410    2.3960    0.1650 c         1 MOL      0.590194
    166 O25         0.6720    3.2800    1.0180 o         1 MOL     -0.626155
    167 O26         1.8810    1.8210    0.0860 o         1 MOL     -0.626155
    168 H71        -2.9080    3.1640   -0.9900 hn        1 MOL      0.297702
    169 H72        -0.4380    4.7430   -1.2600 h1        1 MOL      0.159171
    170 H73         0.5400    2.9810   -2.3040 hc        1 MOL      0.083710
    171 H74        -0.9830    2.1390   -2.8400 hc        1 MOL      0.083710
    172 H75        -0.1000    0.8430   -1.0510 hc        1 MOL     -0.119492
    173 H76        -1.3000    1.8150   -0.1710 hc        1 MOL     -0.119492
    174 N15        -2.7460    5.2710   -3.1510 n         1 MOL     -0.196391
    175 C58        -3.3990    6.1450   -4.1200 c3        1 MOL     -0.240580
    176 H77        -4.4800    6.0470   -4.0260 h1        1 MOL      0.096743
    177 H78        -3.1100    7.1790   -3.9300 h1        1 MOL      0.096743
    178 H79        -3.0950    5.8630   -5.1280 h1        1 MOL      0.096743
    179 H80        -3.3370    4.8960   -2.4290 hn        1 MOL      0.152385
    180 Ca1         4.2310    1.7280    1.1190 Ca        1 MOL      1.755257
    181 O27         3.0040    4.1840    1.8580 oh        1 MOL     -0.812899
    182 H81         2.1370    3.9720    1.4980 ho        1 MOL      0.385464
    183 H82         3.3150    4.9020    1.2990 ho        1 MOL      0.385464
    184 O28         5.5020    3.0990    3.1370 oh        1 MOL     -0.812899
    185 H83         5.8650    2.7290    3.9400 ho        1 MOL      0.385464
    186 H84         6.0140    3.8950    2.9830 ho        1 MOL      0.385464
    187 O29         6.0450    0.2990    2.6800 oh        1 MOL     -0.812899
    188 H85         5.9210   -0.0780    3.5490 ho        1 MOL      0.385464
    189 H86         6.9260    0.0190    2.4230 ho        1 MOL      0.385464
@<TRIPOS>BOND
     1    1    2 1   
     2    1    4 1   
     3    1    5 1   
     4    1    6 1   
     5    2    3 2   
     6    2    7 1   
     7    7    8 1   
     8    7   15 1   
     9    8    9 1   
    10    8   11 1   
    11    8   16 1   
    12    9   10 2   
    13    9   19 1   
    14   11   12 1   
    15   11   17 1   
    16   11   18 1   
    17   12   13 1   
    18   12   14 1   
    19   19   20 1   
    20   19   27 1   
    21   20   21 1   
    22   20   23 1   
    23   20   28 1   
    24   21   22 2   
    25   21   38 1   
    26   23   24 1   
    27   23   25 1   
    28   23   29 1   
    29   24   26 1   
    30   24   30 1   
    31   24   31 1   
    32   25   32 1   
    33   25   33 1   
    34   25   34 1   
    35   26   35 1   
    36   26   36 1   
    37   26   37 1   
    38   38   39 1   
    39   38   46 1   
    40   39   40 1   
    41   39   42 1   
    42   39   47 1   
    43   40   41 2   
    44   40   50 1   
    45   42   43 1   
    46   42   48 1   
    47   42   49 1   
    48   43   44 1   
    49   43   45 1   
    50   50   51 1   
    51   50   54 1   
    52   51   52 1   
    53   51   55 1   
    54   51   56 1   
    55   52   53 2   
    56   52   57 1   
    57   57   58 1   
    58   57   65 1   
    59   58   59 1   
    60   58   61 1   
    61   58   66 1   
    62   59   60 2   
    63   59   69 1   
    64   61   62 1   
    65   61   67 1   
    66   61   68 1   
    67   62   63 1   
    68   62   64 1   
    69   69   70 1   
    70   69   73 1   
    71   70   71 1   
    72   70   74 1   
    73   70   75 1   
    74   71   72 2   
    75   71   76 1   
    76   76   77 1   
    77   76   85 1   
    78   77   78 1   
    79   77   80 1   
    80   77   86 1   
    81   78   79 2   
    82   78   93 1   
    83   80   81 1   
    84   80   87 1   
    85   80   88 1   
    86   81   82 1   
    87   81   89 1   
    88   81   90 1   
    89   82   83 1   
    90   82   84 2   
    91   83   91 1   
    92   83   92 1   
    93   93   94 1   
    94   93  100 1   
    95   94   95 1   
    96   94   97 1   
    97   94  101 1   
    98   95   96 2   
    99   95  109 1   
   100   97   98 1   
   101   97   99 1   
   102   97  102 1   
   103   98  103 1   
   104   98  104 1   
   105   98  105 1   
   106   99  106 1   
   107   99  107 1   
   108   99  108 1   
   109  109  110 1   
   110  109  117 1   
   111  110  111 1   
   112  110  113 1   
   113  110  118 1   
   114  111  112 2   
   115  111  123 1   
   116  113  114 1   
   117  113  119 1   
   118  113  120 1   
   119  114  115 1   
   120  114  116 2   
   121  115  121 1   
   122  115  122 1   
   123  123  124 1   
   124  123  135 1   
   125  124  125 1   
   126  124  127 1   
   127  124  136 1   
   128  125  126 2   
   129  125  144 1   
   130  127  128 1   
   131  127  137 1   
   132  127  138 1   
   133  128  129 ar  
   134  128  130 ar  
   135  129  131 ar  
   136  129  139 1   
   137  130  132 ar  
   138  130  140 1   
   139  131  133 ar  
   140  131  141 1   
   141  132  133 ar  
   142  132  142 1   
   143  133  134 1   
   144  134  143 1   
   145  144  145 1   
   146  144  153 1   
   147  145  146 1   
   148  145  148 1   
   149  145  154 1   
   150  146  147 2   
   151  146  159 1   
   152  148  149 1   
   153  148  155 1   
   154  148  156 1   
   155  149  150 1   
   156  149  157 1   
   157  149  158 1   
   158  150  151 1   
   159  150  152 1   
   160  159  160 1   
   161  159  168 1   
   162  160  161 1   
   163  160  163 1   
   164  160  169 1   
   165  161  162 2   
   166  161  174 1   
   167  163  164 1   
   168  163  170 1   
   169  163  171 1   
   170  164  165 1   
   171  164  172 1   
   172  164  173 1   
   173  165  166 1   
   174  165  167 1   
   175  174  175 1   
   176  174  179 1   
   177  175  176 1   
   178  175  177 1   
   179  175  178 1   
   180  181  182 1   
   181  181  183 1   
   182  184  185 1   
   183  184  186 1   
   184  187  188 1   
   185  187  189 1   
@<TRIPOS>SUBSTRUCTURE
     1 MOL         1 TEMP              0 ****  ****    0 ROOT
