@<TRIPOS>MOLECULE
MOL
  195   189     1     0     0
SMALL
resp


@<TRIPOS>ATOM
      1 C1         -2.9400   -3.1870    3.8410 c3        1 MOL     -0.588757
      2 C2         -2.1140   -3.3760    2.5880 c         1 MOL      0.905063
      3 O1         -1.2410   -2.5810    2.3530 o         1 MOL     -0.518956
      4 H1         -2.2890   -2.8880    4.6630 hc        1 MOL      0.138859
      5 H2         -3.6890   -2.4140    3.6710 hc        1 MOL      0.138859
      6 H3         -3.4370   -4.1240    4.0940 hc        1 MOL      0.138859
      7 N1         -2.3640   -4.4310    1.7760 n         1 MOL     -0.799034
      8 C3         -1.8110   -4.5160    0.3740 c3        1 MOL     -0.037306
      9 C4         -0.2950   -4.4760    0.1650 c         1 MOL      0.678196
     10 O2          0.1860   -3.9840   -0.8950 o         1 MOL     -0.564254
     11 C5         -2.5280   -3.4430   -0.5250 c3        1 MOL     -0.245130
     12 C6         -4.0960   -3.6400   -0.3860 c         1 MOL      0.797876
     13 O3         -4.8480   -2.6320   -0.1550 o         1 MOL     -0.747609
     14 O4         -4.5530   -4.7980   -0.5590 o         1 MOL     -0.747609
     15 H4         -2.9640   -5.2080    2.0290 hn        1 MOL      0.347760
     16 H5         -1.9940   -5.5410    0.0580 h1        1 MOL      0.123735
     17 H6         -2.2520   -3.4900   -1.5740 hc        1 MOL      0.103505
     18 H7         -2.2740   -2.4870   -0.0490 hc        1 MOL      0.103505
     19 N2          0.4090   -5.0590    1.1420 n         1 MOL     -0.703835
     20 C7          1.9170   -5.0540    1.2830 c3        1 MOL      0.095913
     21 C8          2.7410   -5.9970    0.3680 c         1 MOL      0.547692
     22 O5          2.3380   -7.1640    0.2840 o         1 MOL     -0.563676
     23 C9          2.4210   -4.9180    2.7650 c3        1 MOL      0.047659
     24 C10         2.5270   -6.2230    3.5350 c3        1 MOL      0.025880
     25 C11         1.6230   -3.7690    3.4610 c3        1 MOL     -0.091763
     26 C12         1.1830   -6.9300    3.7610 c3        1 MOL     -0.411801
     27 H8         -0.1410   -5.3420    1.9450 hn        1 MOL      0.399390
     28 H9          2.1380   -4.1190    0.7580 h1        1 MOL      0.143830
     29 H10         3.4630   -4.5940    2.8120 hc        1 MOL      0.017265
     30 H11         3.1110   -6.0110    4.4360 hc        1 MOL      0.040702
     31 H12         3.0760   -6.9870    2.9900 hc        1 MOL      0.040702
     32 H13         1.8530   -3.6940    4.5250 hc        1 MOL      0.009734
     33 H14         1.9440   -2.8410    2.9940 hc        1 MOL      0.009734
     34 H15         0.5510   -3.9510    3.3880 hc        1 MOL      0.009734
     35 H16         0.3950   -6.4760    4.3650 hc        1 MOL      0.095142
     36 H17         0.7430   -7.1180    2.7860 hc        1 MOL      0.095142
     37 H18         1.4040   -7.9420    4.1050 hc        1 MOL      0.095142
     38 N3          3.9170   -5.5910   -0.1260 n         1 MOL     -0.468888
     39 C13         4.6080   -4.3110    0.0370 c3        1 MOL      0.057312
     40 C14         3.9630   -3.1910   -0.7500 c         1 MOL      0.158789
     41 O6          4.2600   -2.0260   -0.5880 o         1 MOL     -0.441868
     42 C15         6.0530   -4.3990   -0.4520 c3        1 MOL     -0.215019
     43 C16         6.7410   -5.7480   -0.1920 c         1 MOL      0.750529
     44 O7          6.5860   -6.6720   -0.9900 o         1 MOL     -0.718407
     45 O8          7.3370   -5.8930    0.9090 o         1 MOL     -0.718407
     46 H19         4.5050   -6.2670   -0.5960 hn        1 MOL      0.301372
     47 H20         4.6840   -3.9730    1.0690 h1        1 MOL      0.102772
     48 H21         6.5810   -3.6370    0.1300 hc        1 MOL      0.028700
     49 H22         6.1310   -4.0530   -1.4840 hc        1 MOL      0.028700
     50 N4          3.1380   -3.5220   -1.7840 n         1 MOL     -0.101501
     51 C17         2.6430   -2.6830   -2.8520 c3        1 MOL     -0.160128
     52 C18         3.6510   -2.0260   -3.7290 c         1 MOL      0.516472
     53 O9          3.7330   -2.2870   -4.9030 o         1 MOL     -0.577285
     54 H23         2.8400   -4.4870   -1.8680 hn        1 MOL      0.218738
     55 H24         1.9880   -1.9500   -2.4000 h1        1 MOL      0.095870
     56 H25         2.0210   -3.2950   -3.5050 h1        1 MOL      0.095870
     57 N5          4.3110   -1.0580   -3.1320 n         1 MOL     -0.252038
     58 C19         5.4020   -0.4170   -3.7710 c3        1 MOL      0.080026
     59 C20         6.6450   -0.1320   -2.8350 c         1 MOL      0.259257
     60 O10         7.6130    0.6270   -3.1590 o         1 MOL     -0.490676
     61 C21         4.9520    0.9480   -4.2940 c3        1 MOL     -0.344951
     62 C22         4.3410    2.0380   -3.3710 c         1 MOL      0.726786
     63 O11         4.2940    1.8120   -2.1230 o         1 MOL     -0.690622
     64 O12         3.8900    3.1400   -3.8140 o         1 MOL     -0.690622
     65 H26         3.9530   -0.7440   -2.2360 hn        1 MOL      0.263234
     66 H27         5.7600   -0.9480   -4.6540 h1        1 MOL      0.101206
     67 H28         4.1400    0.8160   -5.0050 hc        1 MOL      0.074191
     68 H29         5.7320    1.3920   -4.9150 hc        1 MOL      0.074191
     69 N6          6.6850   -0.6930   -1.6310 n         1 MOL     -0.103071
     70 C23         7.7200   -0.3570   -0.6050 c3        1 MOL     -0.225913
     71 C24         7.6760    1.0560   -0.1000 c         1 MOL      0.579636
     72 O13         8.5180    1.4050    0.7870 o         1 MOL     -0.611219
     73 H30         5.9870   -1.3670   -1.3500 hn        1 MOL      0.180590
     74 H31         8.6750   -0.4450   -1.1090 h1        1 MOL      0.117749
     75 H32         7.6060   -1.0890    0.1990 h1        1 MOL      0.117749
     76 N7          6.7840    1.8930   -0.6040 n         1 MOL     -0.087435
     77 C25         6.6940    3.3620   -0.3090 c3        1 MOL     -0.036355
     78 C26         6.3790    3.7400    1.1240 c         1 MOL      0.538110
     79 O14         6.8870    4.7760    1.5390 o         1 MOL     -0.536088
     80 C27         7.8310    4.1010   -1.0100 c3        1 MOL     -0.059565
     81 C28         7.7530    4.0240   -2.5260 c3        1 MOL     -0.058698
     82 C29         8.8850    4.7400   -3.1870 c         1 MOL      0.574376
     83 N8          8.8590    4.6620   -4.5490 n         1 MOL     -0.818516
     84 O15         9.8490    5.2050   -2.5630 o         1 MOL     -0.554221
     85 H33         6.2500    1.5800   -1.3960 hn        1 MOL      0.021679
     86 H34         5.8300    3.7340   -0.8590 h1        1 MOL      0.111135
     87 H35         8.7720    3.6580   -0.7050 hc        1 MOL      0.046410
     88 H36         7.9050    5.1250   -0.6260 hc        1 MOL      0.046410
     89 H37         6.7780    4.3360   -2.8910 hc        1 MOL      0.059663
     90 H38         7.8160    2.9580   -2.7620 hc        1 MOL      0.059663
     91 H39         8.1020    4.2460   -5.0720 hn        1 MOL      0.353176
     92 H40         9.6510    5.0410   -5.0360 hn        1 MOL      0.353176
     93 N9          5.6510    2.9370    1.8620 n         1 MOL     -0.446561
     94 C30         5.2100    3.2040    3.2280 c3        1 MOL     -0.008679
     95 C31         3.6650    2.9100    3.4840 c         1 MOL      0.559760
     96 O16         3.0530    3.3660    4.5020 o         1 MOL     -0.586434
     97 C32         5.8880    2.2630    4.2690 c3        1 MOL      0.332627
     98 C33         5.8580    0.7550    4.0290 c3        1 MOL     -0.435093
     99 C34         7.3800    2.6370    4.3370 c3        1 MOL     -0.435093
    100 H41         5.2890    2.1180    1.3880 hn        1 MOL      0.245751
    101 H42         5.3390    4.2530    3.5190 h1        1 MOL      0.094206
    102 H43         5.2730    2.4720    5.1520 hc        1 MOL     -0.055012
    103 H44         6.5200    0.3950    3.2400 hc        1 MOL      0.103362
    104 H45         6.0980    0.3300    5.0050 hc        1 MOL      0.103362
    105 H46         4.8710    0.4600    3.6930 hc        1 MOL      0.103362
    106 H47         7.8800    2.4070    3.3970 hc        1 MOL      0.103362
    107 H48         7.3720    3.6120    4.8070 hc        1 MOL      0.103362
    108 H49         7.8870    1.9950    5.0640 hc        1 MOL      0.103362
    109 N10         3.0000    2.2680    2.5370 n         1 MOL     -0.502772
    110 C35         1.6060    1.7620    2.6970 c3        1 MOL      0.193979
    111 C36         0.6850    2.2350    1.5100 c         1 MOL      0.485128
    112 O17         1.1900    2.3890    0.3690 o         1 MOL     -0.487945
    113 C37         1.6420    0.3320    2.8770 c3        1 MOL      0.027783
    114 C38         0.6090   -0.0890    3.8320 c         1 MOL      0.442033
    115 N11         1.0010   -0.9510    4.6930 n         1 MOL     -0.620669
    116 O18        -0.5090    0.4440    3.9770 o         1 MOL     -0.519324
    117 H50         3.4800    1.9310    1.7220 hn        1 MOL      0.283356
    118 H51         1.2090    2.2060    3.6190 h1        1 MOL      0.080770
    119 H52         2.6510    0.0020    3.1070 hc        1 MOL      0.034806
    120 H53         1.5050   -0.1090    1.8890 hc        1 MOL      0.034806
    121 H54         1.9170   -1.3720    4.7680 hn        1 MOL      0.310861
    122 H55         0.2660   -1.2710    5.3080 hn        1 MOL      0.310861
    123 N12        -0.6940    2.2450    1.5990 n         1 MOL     -0.546163
    124 C39        -1.6610    2.6170    0.5140 c3        1 MOL      0.231127
    125 C40        -2.9790    3.2690    0.9200 c         1 MOL      0.520919
    126 O19        -3.5640    2.9410    2.0160 o         1 MOL     -0.543292
    127 C41        -1.8750    1.3960   -0.3910 c3        1 MOL     -0.362872
    128 C42        -2.8860    1.4120   -1.5220 ca        1 MOL      0.052787
    129 C43        -3.9120    0.4240   -1.5440 ca        1 MOL     -0.142496
    130 C44        -2.7210    2.2300   -2.6700 ca        1 MOL     -0.142496
    131 C45        -4.6960    0.3270   -2.6830 ca        1 MOL     -0.300258
    132 C46        -3.6450    2.2480   -3.6770 ca        1 MOL     -0.300258
    133 C47        -4.5830    1.2140   -3.7680 ca        1 MOL      0.403721
    134 O20        -5.4250    1.1160   -4.8510 oh        1 MOL     -0.623539
    135 H56        -1.1780    1.9740    2.4400 hn        1 MOL      0.257503
    136 H57        -1.1660    3.4190   -0.0320 h1        1 MOL      0.056395
    137 H58        -2.1470    0.6420    0.3560 hc        1 MOL      0.160169
    138 H59        -0.8950    1.1290   -0.7790 hc        1 MOL      0.160169
    139 H60        -4.0320   -0.2380   -0.6980 ha        1 MOL      0.145366
    140 H61        -1.8270    2.8470   -2.6530 ha        1 MOL      0.145366
    141 H62        -5.5130   -0.3800   -2.7000 ha        1 MOL      0.185501
    142 H63        -3.5870    2.9440   -4.5030 ha        1 MOL      0.185501
    143 H64        -6.1480    0.5100   -4.7120 ho        1 MOL      0.449991
    144 N13        -3.4270    4.2210    0.1360 n         1 MOL     -0.511246
    145 C48        -4.6760    5.0180    0.2950 c3        1 MOL     -0.045004
    146 C49        -5.5860    5.0450   -1.0150 c         1 MOL      0.677412
    147 O21        -5.4060    5.8330   -1.9320 o         1 MOL     -0.566699
    148 C50        -4.3080    6.4490    0.6710 c3        1 MOL      0.240644
    149 C51        -5.3470    7.2950    1.4900 c3        1 MOL     -0.325549
    150 C52        -4.6420    8.6130    1.7900 c         1 MOL      0.660406
    151 O22        -3.9980    8.7260    2.8710 o         1 MOL     -0.669230
    152 O23        -4.5430    9.4190    0.8740 o         1 MOL     -0.669230
    153 H65        -2.8210    4.3680   -0.6670 hn        1 MOL      0.278375
    154 H66        -5.1930    4.5800    1.1430 h1        1 MOL      0.097165
    155 H67        -4.0740    7.0470   -0.2120 hc        1 MOL      0.000065
    156 H68        -3.3550    6.3480    1.1820 hc        1 MOL      0.000065
    157 H69        -5.5420    6.6400    2.3250 hc        1 MOL      0.044588
    158 H70        -6.2520    7.3920    0.8830 hc        1 MOL      0.044588
    159 N14        -6.5390    4.1200   -1.2860 n         1 MOL     -0.657382
    160 C53        -6.7460    2.8280   -0.5520 c3        1 MOL      0.149130
    161 C54        -7.2990    3.0670    0.8490 c         1 MOL      0.364162
    162 O24        -8.3110    3.7030    1.0750 o         1 MOL     -0.563080
    163 C55        -7.6900    1.9930   -1.3630 c3        1 MOL     -0.019632
    164 C56        -7.7630    0.5750   -0.7400 c3        1 MOL     -0.073201
    165 C57        -8.6270   -0.3860   -1.6290 c         1 MOL      0.566755
    166 O25        -8.4880   -1.6190   -1.3760 o         1 MOL     -0.641396
    167 O26        -9.2980    0.0450   -2.6020 o         1 MOL     -0.641396
    168 H71        -6.9860    4.2470   -2.1770 hn        1 MOL      0.340908
    169 H72        -5.8100    2.3050   -0.4020 h1        1 MOL      0.110046
    170 H73        -7.2720    1.9620   -2.3720 hc        1 MOL      0.024984
    171 H74        -8.7200    2.3420   -1.3780 hc        1 MOL      0.024984
    172 H75        -8.2260    0.6180    0.2500 hc        1 MOL     -0.032785
    173 H76        -6.7450    0.2360   -0.5450 hc        1 MOL     -0.032785
    174 N15        -6.6550    2.5390    1.8370 n         1 MOL     -0.025776
    175 C58        -6.9140    2.5710    3.3160 c3        1 MOL     -0.139565
    176 H77        -5.9810    2.7730    3.8420 h1        1 MOL      0.067247
    177 H78        -7.6350    3.3570    3.5410 h1        1 MOL      0.067247
    178 H79        -7.3110    1.6090    3.6370 h1        1 MOL      0.067247
    179 H80        -5.7740    2.0870    1.6150 hn        1 MOL      0.118921
    180 Ca1        -7.0230   -3.6800   -0.5480 Ca        1 MOL      1.674772
    181 O27        -6.7150   -5.9020   -2.1870 oh        1 MOL     -0.840026
    182 H81        -6.9890   -6.1980   -3.0510 ho        1 MOL      0.397973
    183 H82        -5.8540   -6.3040   -2.0550 ho        1 MOL      0.397973
    184 O28        -6.0440   -2.9760   -3.0930 oh        1 MOL     -0.840026
    185 H83        -5.2020   -3.3210   -3.3850 ho        1 MOL      0.397973
    186 H84        -6.5530   -2.8510   -3.8960 ho        1 MOL      0.397973
    187 O29        -9.2040   -4.1830   -2.3220 oh        1 MOL     -0.840026
    188 H85        -9.8160   -3.5430   -2.6910 ho        1 MOL      0.397973
    189 H86        -9.7310   -4.9670   -2.1810 ho        1 MOL      0.397973
    190 O30        -7.2660   -2.1030    1.5520 oh        1 MOL     -0.840026
    191 H87        -6.7120   -2.4060    2.2690 ho        1 MOL      0.397973
    192 H88        -7.8860   -1.4980    1.9580 ho        1 MOL      0.397973
    193 O31        -9.2840   -4.3430    0.6650 oh        1 MOL     -0.840026
    194 H89       -10.0330   -3.8040    0.4090 ho        1 MOL      0.397973
    195 H90        -9.6550   -5.0110    1.2500 ho        1 MOL      0.397973
@<TRIPOS>BOND
     1    1    2 1   
     2    1    4 1   
     3    1    5 1   
     4    1    6 1   
     5    2    3 2   
     6    2    7 1   
     7    7    8 1   
     8    7   15 1   
     9    8    9 1   
    10    8   11 1   
    11    8   16 1   
    12    9   10 2   
    13    9   19 1   
    14   11   12 1   
    15   11   17 1   
    16   11   18 1   
    17   12   13 1   
    18   12   14 1   
    19   19   20 1   
    20   19   27 1   
    21   20   21 1   
    22   20   23 1   
    23   20   28 1   
    24   21   22 2   
    25   21   38 1   
    26   23   24 1   
    27   23   25 1   
    28   23   29 1   
    29   24   26 1   
    30   24   30 1   
    31   24   31 1   
    32   25   32 1   
    33   25   33 1   
    34   25   34 1   
    35   26   35 1   
    36   26   36 1   
    37   26   37 1   
    38   38   39 1   
    39   38   46 1   
    40   39   40 1   
    41   39   42 1   
    42   39   47 1   
    43   40   41 2   
    44   40   50 1   
    45   42   43 1   
    46   42   48 1   
    47   42   49 1   
    48   43   44 1   
    49   43   45 1   
    50   50   51 1   
    51   50   54 1   
    52   51   52 1   
    53   51   55 1   
    54   51   56 1   
    55   52   53 2   
    56   52   57 1   
    57   57   58 1   
    58   57   65 1   
    59   58   59 1   
    60   58   61 1   
    61   58   66 1   
    62   59   60 2   
    63   59   69 1   
    64   61   62 1   
    65   61   67 1   
    66   61   68 1   
    67   62   63 1   
    68   62   64 1   
    69   69   70 1   
    70   69   73 1   
    71   70   71 1   
    72   70   74 1   
    73   70   75 1   
    74   71   72 2   
    75   71   76 1   
    76   76   77 1   
    77   76   85 1   
    78   77   78 1   
    79   77   80 1   
    80   77   86 1   
    81   78   79 2   
    82   78   93 1   
    83   80   81 1   
    84   80   87 1   
    85   80   88 1   
    86   81   82 1   
    87   81   89 1   
    88   81   90 1   
    89   82   83 1   
    90   82   84 2   
    91   83   91 1   
    92   83   92 1   
    93   93   94 1   
    94   93  100 1   
    95   94   95 1   
    96   94   97 1   
    97   94  101 1   
    98   95   96 2   
    99   95  109 1   
   100   97   98 1   
   101   97   99 1   
   102   97  102 1   
   103   98  103 1   
   104   98  104 1   
   105   98  105 1   
   106   99  106 1   
   107   99  107 1   
   108   99  108 1   
   109  109  110 1   
   110  109  117 1   
   111  110  111 1   
   112  110  113 1   
   113  110  118 1   
   114  111  112 2   
   115  111  123 1   
   116  113  114 1   
   117  113  119 1   
   118  113  120 1   
   119  114  115 1   
   120  114  116 2   
   121  115  121 1   
   122  115  122 1   
   123  123  124 1   
   124  123  135 1   
   125  124  125 1   
   126  124  127 1   
   127  124  136 1   
   128  125  126 2   
   129  125  144 1   
   130  127  128 1   
   131  127  137 1   
   132  127  138 1   
   133  128  129 ar  
   134  128  130 ar  
   135  129  131 ar  
   136  129  139 1   
   137  130  132 ar  
   138  130  140 1   
   139  131  133 ar  
   140  131  141 1   
   141  132  133 ar  
   142  132  142 1   
   143  133  134 1   
   144  134  143 1   
   145  144  145 1   
   146  144  153 1   
   147  145  146 1   
   148  145  148 1   
   149  145  154 1   
   150  146  147 2   
   151  146  159 1   
   152  148  149 1   
   153  148  155 1   
   154  148  156 1   
   155  149  150 1   
   156  149  157 1   
   157  149  158 1   
   158  150  151 1   
   159  150  152 1   
   160  159  160 1   
   161  159  168 1   
   162  160  161 1   
   163  160  163 1   
   164  160  169 1   
   165  161  162 2   
   166  161  174 1   
   167  163  164 1   
   168  163  170 1   
   169  163  171 1   
   170  164  165 1   
   171  164  172 1   
   172  164  173 1   
   173  165  166 1   
   174  165  167 1   
   175  174  175 1   
   176  174  179 1   
   177  175  176 1   
   178  175  177 1   
   179  175  178 1   
   180  181  182 1   
   181  181  183 1   
   182  184  185 1   
   183  184  186 1   
   184  187  188 1   
   185  187  189 1   
   186  190  191 1   
   187  190  192 1   
   188  193  194 1   
   189  193  195 1   
@<TRIPOS>SUBSTRUCTURE
     1 MOL         1 TEMP              0 ****  ****    0 ROOT
