@<TRIPOS>MOLECULE
MOL
  182   178     1     0     0
SMALL
resp


@<TRIPOS>ATOM
      1 C1          1.3830   -5.0920    5.7450 c3        1 MOL     -0.418684
      2 C2          1.3990   -4.5010    4.3090 c         1 MOL      0.694225
      3 O1          0.3190   -4.4950    3.6560 o         1 MOL     -0.591789
      4 H1          0.6030   -5.8500    5.8160 hc        1 MOL      0.121429
      5 H2          2.3500   -5.5440    5.9620 hc        1 MOL      0.121429
      6 H3          1.1820   -4.2970    6.4630 hc        1 MOL      0.121429
      7 N1          2.5080   -3.9400    3.9080 n         1 MOL     -0.475065
      8 C3          2.6930   -3.2650    2.6190 c3        1 MOL     -0.036833
      9 C4          3.2700   -4.2900    1.5460 c         1 MOL      0.501050
     10 O2          4.2870   -4.9520    1.7690 o         1 MOL     -0.524899
     11 C5          3.7260   -2.0380    2.7320 c3        1 MOL     -0.085161
     12 C6          3.7500   -1.1600    1.4650 c         1 MOL      0.697029
     13 O3          3.9360    0.0790    1.4540 o         1 MOL     -0.752529
     14 O4          3.4800   -1.6440    0.3760 o         1 MOL     -0.752529
     15 H4          3.3360   -3.9340    4.4810 hn        1 MOL      0.317721
     16 H5          1.8010   -2.7860    2.2140 h1        1 MOL     -0.078054
     17 H6          4.6900   -2.4690    3.0250 hc        1 MOL      0.059584
     18 H7          3.4400   -1.3810    3.5530 hc        1 MOL      0.059584
     19 N2          2.6490   -4.3500    0.3910 n         1 MOL     -0.123997
     20 C7          2.9630   -5.2120   -0.7220 c3        1 MOL     -0.301861
     21 C8          4.3320   -4.8700   -1.4260 c         1 MOL      0.594977
     22 O5          4.9890   -5.7590   -1.9910 o         1 MOL     -0.547032
     23 C9          1.7560   -5.2480   -1.6360 c3        1 MOL      0.170620
     24 C10         0.5500   -6.0790   -1.0930 c3        1 MOL     -0.252554
     25 C11        -0.6670   -6.1180   -2.0720 c3        1 MOL      0.147867
     26 C12        -1.8790   -6.9910   -1.7150 c3        1 MOL     -0.042874
     27 N3         -2.9690   -6.7240   -2.7020 n4        1 MOL     -0.295652
     28 H8          1.9480   -3.6620    0.1390 hn        1 MOL      0.215149
     29 H9          3.1340   -6.1980   -0.2780 h1        1 MOL      0.143250
     30 H10         1.9660   -5.5670   -2.6550 hc        1 MOL     -0.002005
     31 H11         1.3820   -4.2350   -1.8250 hc        1 MOL     -0.002005
     32 H12         0.2380   -5.6680   -0.1350 hc        1 MOL      0.070356
     33 H13         0.8860   -7.1210   -1.0400 hc        1 MOL      0.070356
     34 H14        -0.2290   -6.4340   -3.0270 hc        1 MOL     -0.007216
     35 H15        -0.9940   -5.0930   -2.2460 hc        1 MOL     -0.007216
     36 H16        -2.1990   -6.7800   -0.6980 hx        1 MOL      0.108353
     37 H17        -1.6180   -8.0530   -1.7150 hx        1 MOL      0.108353
     38 H18        -3.0670   -5.7300   -2.8630 hn        1 MOL      0.270966
     39 H19        -2.8800   -7.2160   -3.5690 hn        1 MOL      0.270966
     40 H20        -3.8470   -7.0570   -2.3230 hn        1 MOL      0.270966
     41 N4          4.6500   -3.5830   -1.5110 n         1 MOL     -0.454333
     42 C13         5.9310   -3.1540   -2.1680 c3        1 MOL      0.130489
     43 C14         6.9100   -2.4040   -1.2670 c         1 MOL      0.365790
     44 O6          8.0900   -2.3210   -1.6620 o         1 MOL     -0.496351
     45 C15         5.6350   -2.3220   -3.3940 c3        1 MOL     -0.264012
     46 C16         4.7860   -1.0930   -3.1490 c         1 MOL      0.773347
     47 O7          4.7020   -0.5680   -2.0060 o         1 MOL     -0.732793
     48 O8          4.0810   -0.6900   -4.1080 o         1 MOL     -0.732793
     49 H21         4.1440   -2.8510   -1.0350 hn        1 MOL      0.319884
     50 H22         6.5540   -3.9830   -2.4960 h1        1 MOL      0.092444
     51 H23         5.1260   -2.9000   -4.1690 hc        1 MOL      0.095071
     52 H24         6.5460   -1.9220   -3.8350 hc        1 MOL      0.095071
     53 N5          6.4850   -1.7810   -0.1560 n         1 MOL     -0.122541
     54 C17         7.3660   -0.9520    0.6800 c3        1 MOL     -0.277787
     55 C18         7.3790    0.5220    0.3350 c         1 MOL      0.665184
     56 O9          8.2230    1.2700    0.8360 o         1 MOL     -0.627354
     57 H25         5.4970   -1.6890    0.0370 hn        1 MOL      0.060974
     58 H26         8.3730   -1.2850    0.4230 h1        1 MOL      0.129828
     59 H27         7.0740   -1.0740    1.7250 h1        1 MOL      0.129828
     60 N6          6.5580    1.0590   -0.5550 n         1 MOL     -0.247302
     61 C19         6.6970    2.4850   -1.0320 c3        1 MOL     -0.188818
     62 C20         5.3510    3.2430   -0.8000 c         1 MOL      0.771715
     63 O10         4.3100    2.6780   -0.6670 o         1 MOL     -0.604681
     64 C21         6.9910    2.5320   -2.5340 c3        1 MOL     -0.272977
     65 C22         8.2890    1.7800   -2.9010 c         1 MOL      0.599458
     66 N7          9.3430    1.9700   -2.2310 n         1 MOL     -0.705771
     67 O11         8.3710    0.8960   -3.7230 o         1 MOL     -0.528268
     68 H28         5.8990    0.4100   -0.9430 hn        1 MOL      0.338396
     69 H29         7.4540    3.0760   -0.5100 h1        1 MOL      0.081919
     70 H30         7.1430    3.5940   -2.7560 hc        1 MOL      0.075430
     71 H31         6.1790    2.1220   -3.1280 hc        1 MOL      0.075430
     72 H32         9.3350    2.7090   -1.5360 hn        1 MOL      0.359515
     73 H33        10.2120    1.4830   -2.4400 hn        1 MOL      0.359515
     74 N8          5.4800    4.5660   -0.7150 n         1 MOL     -0.533614
     75 C23         4.2620    5.3670   -0.7160 c3        1 MOL     -0.058686
     76 C24         3.3320    5.2440    0.5010 c         1 MOL      0.613833
     77 O12         3.7350    5.0270    1.6380 o         1 MOL     -0.520643
     78 H34         6.4010    4.9810   -0.6500 hn        1 MOL      0.354469
     79 H35         3.6960    5.1560   -1.6320 h1        1 MOL      0.077917
     80 H36         4.4180    6.4320   -0.7940 h1        1 MOL      0.077917
     81 N9          2.0280    5.1050    0.2880 n         1 MOL     -0.605232
     82 C25         1.0770    4.5990    1.3230 c3        1 MOL      0.161271
     83 C26         1.1520    3.0910    1.6670 c         1 MOL      0.525489
     84 O13         1.9520    2.3790    1.0560 o         1 MOL     -0.374610
     85 C27        -0.3640    4.9450    0.8920 c3        1 MOL     -0.215205
     86 C28        -0.7120    6.4230    0.4880 ca        1 MOL      0.148789
     87 C29        -0.9920    7.4600    1.4700 ca        1 MOL     -0.190928
     88 C30        -0.8150    6.7260   -0.8580 ca        1 MOL     -0.190928
     89 C31        -1.2410    8.7710    1.0570 ca        1 MOL     -0.256260
     90 C32        -1.0700    8.0640   -1.2620 ca        1 MOL     -0.256260
     91 C33        -1.2510    9.0920   -0.3230 ca        1 MOL      0.348289
     92 O14        -1.4170   10.3980   -0.7140 oh        1 MOL     -0.493086
     93 H37         1.7140    5.1140   -0.6800 hn        1 MOL      0.287578
     94 H38         1.1810    5.2240    2.2150 h1        1 MOL      0.088196
     95 H39        -1.1360    4.7990    1.6480 hc        1 MOL      0.063129
     96 H40        -0.6550    4.3740    0.0150 hc        1 MOL      0.063129
     97 H41        -0.8050    7.1840    2.5110 ha        1 MOL      0.137518
     98 H42        -0.8010    5.9280   -1.5760 ha        1 MOL      0.137518
     99 H43        -1.4280    9.5750    1.7620 ha        1 MOL      0.156567
    100 H44        -1.0750    8.2590   -2.3310 ha        1 MOL      0.156567
    101 H45        -1.5290   10.9340    0.0800 ho        1 MOL      0.375005
    102 N10         0.3740    2.6230    2.6760 n         1 MOL     -0.774665
    103 C34         0.0590    1.1470    3.1020 c3        1 MOL      0.042034
    104 C35        -0.1530    0.2340    1.8340 c         1 MOL      0.574727
    105 O15         0.8190   -0.0250    1.1340 o         1 MOL     -0.397999
    106 C36         1.1260    0.4880    4.0320 c3        1 MOL      0.404034
    107 C37         0.6350   -0.8570    4.6050 c3        1 MOL      0.019588
    108 C38         1.6220    1.3990    5.2210 c3        1 MOL     -0.517210
    109 C39        -0.6200   -0.7940    5.4700 c3        1 MOL     -0.431285
    110 H46        -0.0660    3.3480    3.2130 hn        1 MOL      0.369204
    111 H47        -0.8560    1.2400    3.6800 h1        1 MOL      0.063185
    112 H48         1.9750    0.3330    3.3500 hc        1 MOL     -0.000178
    113 H49         1.3930   -1.3050    5.2490 hc        1 MOL      0.015942
    114 H50         0.4870   -1.4880    3.7270 hc        1 MOL      0.015942
    115 H51         0.7370    1.6910    5.7960 hc        1 MOL      0.128998
    116 H52         2.4650    0.9500    5.7490 hc        1 MOL      0.128998
    117 H53         2.2090    2.1770    4.7290 hc        1 MOL      0.128998
    118 H54        -0.3680   -0.1480    6.3060 hc        1 MOL      0.110005
    119 H55        -1.4880   -0.4470    4.9100 hc        1 MOL      0.110005
    120 H56        -0.6750   -1.8370    5.8030 hc        1 MOL      0.110005
    121 N11        -1.3670   -0.3270    1.7640 n         1 MOL     -0.588754
    122 C40        -1.6350   -1.4750    0.8020 c3        1 MOL     -0.135376
    123 C41        -3.0570   -1.5810    0.3170 c         1 MOL      0.643392
    124 O16        -3.2590   -2.3910   -0.5240 o         1 MOL     -0.582857
    125 C42        -1.3050   -2.8020    1.5020 c3        1 MOL      0.275903
    126 O17        -1.8080   -2.8390    2.8470 oh        1 MOL     -0.594700
    127 H57        -2.0420   -0.0470    2.4590 hn        1 MOL      0.348872
    128 H58        -1.0520   -1.4410   -0.1210 h1        1 MOL      0.129621
    129 H59        -0.2170   -2.9010    1.5850 h1        1 MOL     -0.004428
    130 H60        -1.7820   -3.6080    0.9570 h1        1 MOL     -0.004428
    131 H61        -1.1610   -3.2910    3.3940 ho        1 MOL      0.380950
    132 N12        -3.9750   -0.7850    0.8330 n         1 MOL     -0.325026
    133 C43        -5.3220   -0.5880    0.3170 c3        1 MOL     -0.048326
    134 C44        -5.4160    0.5860   -0.6930 c         1 MOL      0.700437
    135 O18        -4.4520    1.4100   -0.6720 o         1 MOL     -0.614221
    136 C45        -6.2040   -0.2590    1.5450 c3        1 MOL     -0.153634
    137 H62        -3.7220   -0.1020    1.5440 hn        1 MOL      0.229672
    138 H63        -5.8180   -1.4550   -0.1110 h1        1 MOL      0.099459
    139 H64        -6.0120   -0.9200    2.3790 hc        1 MOL      0.063160
    140 H65        -5.9400    0.7030    1.9740 hc        1 MOL      0.063160
    141 H66        -7.2770   -0.1830    1.3630 hc        1 MOL      0.063160
    142 N13        -6.4530    0.6900   -1.5530 n         1 MOL     -0.720016
    143 C46        -7.5650   -0.2660   -1.6970 c3        1 MOL      0.382456
    144 C47        -8.6910    0.3890   -2.3950 c         1 MOL      0.556599
    145 O19        -8.4990    0.9290   -3.4950 o         1 MOL     -0.559222
    146 C48        -7.0170   -1.4480   -2.4990 c3        1 MOL     -0.212525
    147 H67        -6.4700    1.5390   -2.0970 hn        1 MOL      0.353906
    148 H68        -7.8040   -0.5510   -0.6790 h1        1 MOL     -0.049683
    149 H69        -6.7610   -1.2420   -3.5450 hc        1 MOL      0.058685
    150 H70        -6.1420   -1.8930   -2.0270 hc        1 MOL      0.058685
    151 H71        -7.8670   -2.1170   -2.6020 hc        1 MOL      0.058685
    152 N14        -9.8780    0.5430   -1.7900 n         1 MOL     -0.573941
    153 C49       -10.3170   -0.1240   -0.5940 c3        1 MOL     -0.031389
    154 C50        -9.8380    0.6260    0.6690 c         1 MOL      0.394090
    155 O20        -9.5200   -0.0210    1.6700 o         1 MOL     -0.499306
    156 C51       -11.8430   -0.3250   -0.5530 c3        1 MOL     -0.022430
    157 C52       -12.1640   -1.3070   -1.6060 c3        1 MOL     -0.108170
    158 C53       -13.6220   -1.7060   -1.6370 c         1 MOL      0.651022
    159 O21       -14.0900   -2.5360   -0.7510 o         1 MOL     -0.656422
    160 O22       -14.3160   -1.2030   -2.5470 o         1 MOL     -0.656422
    161 H72       -10.5040    1.1390   -2.2980 hn        1 MOL      0.353841
    162 H73        -9.8160   -1.0950   -0.6380 h1        1 MOL      0.116082
    163 H74       -12.3880    0.6020   -0.7140 hc        1 MOL      0.055832
    164 H75       -12.2410   -0.7740    0.3570 hc        1 MOL      0.055832
    165 H76       -11.5620   -2.2180   -1.5200 hc        1 MOL      0.013136
    166 H77       -11.8370   -0.9380   -2.5710 hc        1 MOL      0.013136
    167 N15        -9.8370    1.9610    0.7280 n         1 MOL     -0.257514
    168 C54        -9.4020    2.8610    1.7810 c3        1 MOL     -0.070260
    169 H78        -9.2980    2.3060    2.7130 h1        1 MOL      0.066727
    170 H79        -8.4420    3.3000    1.5100 h1        1 MOL      0.066727
    171 H80       -10.1400    3.6540    1.9110 h1        1 MOL      0.066727
    172 H81       -10.2930    2.4590   -0.0220 hn        1 MOL      0.240649
    173 Ca1         2.6380    0.4870   -0.9450 Ca        1 MOL      1.720337
    174 O23         0.4600    1.8080   -1.7030 oh        1 MOL     -0.905501
    175 H82         0.5070    2.3930   -2.4560 ho        1 MOL      0.437558
    176 H83        -0.4000    1.9840   -1.3230 ho        1 MOL      0.437558
    177 O24         1.1780   -1.3260   -2.3200 oh        1 MOL     -0.905501
    178 H84         1.5080   -1.6990   -3.1350 ho        1 MOL      0.437558
    179 H85         0.2340   -1.4450   -2.3680 ho        1 MOL      0.437558
    180 O25         3.2920    1.6700   -3.1350 oh        1 MOL     -0.905501
    181 H86         3.6540    0.8620   -3.5070 ho        1 MOL      0.437558
    182 H87         3.2340    2.2680   -3.8810 ho        1 MOL      0.437558
@<TRIPOS>BOND
     1    1    2 1   
     2    1    4 1   
     3    1    5 1   
     4    1    6 1   
     5    2    3 2   
     6    2    7 1   
     7    7    8 1   
     8    7   15 1   
     9    8    9 1   
    10    8   11 1   
    11    8   16 1   
    12    9   10 2   
    13    9   19 1   
    14   11   12 1   
    15   11   17 1   
    16   11   18 1   
    17   12   13 1   
    18   12   14 1   
    19   19   20 1   
    20   19   28 1   
    21   20   21 1   
    22   20   23 1   
    23   20   29 1   
    24   21   22 2   
    25   21   41 1   
    26   23   24 1   
    27   23   30 1   
    28   23   31 1   
    29   24   25 1   
    30   24   32 1   
    31   24   33 1   
    32   25   26 1   
    33   25   34 1   
    34   25   35 1   
    35   26   27 1   
    36   26   36 1   
    37   26   37 1   
    38   27   38 1   
    39   27   39 1   
    40   27   40 1   
    41   41   42 1   
    42   41   49 1   
    43   42   43 1   
    44   42   45 1   
    45   42   50 1   
    46   43   44 2   
    47   43   53 1   
    48   45   46 1   
    49   45   51 1   
    50   45   52 1   
    51   46   47 1   
    52   46   48 1   
    53   53   54 1   
    54   53   57 1   
    55   54   55 1   
    56   54   58 1   
    57   54   59 1   
    58   55   56 2   
    59   55   60 1   
    60   60   61 1   
    61   60   68 1   
    62   61   62 1   
    63   61   64 1   
    64   61   69 1   
    65   62   63 2   
    66   62   74 1   
    67   64   65 1   
    68   64   70 1   
    69   64   71 1   
    70   65   66 1   
    71   65   67 2   
    72   66   72 1   
    73   66   73 1   
    74   74   75 1   
    75   74   78 1   
    76   75   76 1   
    77   75   79 1   
    78   75   80 1   
    79   76   77 2   
    80   76   81 1   
    81   81   82 1   
    82   81   93 1   
    83   82   83 1   
    84   82   85 1   
    85   82   94 1   
    86   83   84 2   
    87   83  102 1   
    88   85   86 1   
    89   85   95 1   
    90   85   96 1   
    91   86   87 ar  
    92   86   88 ar  
    93   87   89 ar  
    94   87   97 1   
    95   88   90 ar  
    96   88   98 1   
    97   89   91 ar  
    98   89   99 1   
    99   90   91 ar  
   100   90  100 1   
   101   91   92 1   
   102   92  101 1   
   103  102  103 1   
   104  102  110 1   
   105  103  104 1   
   106  103  106 1   
   107  103  111 1   
   108  104  105 2   
   109  104  121 1   
   110  106  107 1   
   111  106  108 1   
   112  106  112 1   
   113  107  109 1   
   114  107  113 1   
   115  107  114 1   
   116  108  115 1   
   117  108  116 1   
   118  108  117 1   
   119  109  118 1   
   120  109  119 1   
   121  109  120 1   
   122  121  122 1   
   123  121  127 1   
   124  122  123 1   
   125  122  125 1   
   126  122  128 1   
   127  123  124 2   
   128  123  132 1   
   129  125  126 1   
   130  125  129 1   
   131  125  130 1   
   132  126  131 1   
   133  132  133 1   
   134  132  137 1   
   135  133  134 1   
   136  133  136 1   
   137  133  138 1   
   138  134  135 2   
   139  134  142 1   
   140  136  139 1   
   141  136  140 1   
   142  136  141 1   
   143  142  143 1   
   144  142  147 1   
   145  143  144 1   
   146  143  146 1   
   147  143  148 1   
   148  144  145 2   
   149  144  152 1   
   150  146  149 1   
   151  146  150 1   
   152  146  151 1   
   153  152  153 1   
   154  152  161 1   
   155  153  154 1   
   156  153  156 1   
   157  153  162 1   
   158  154  155 2   
   159  154  167 1   
   160  156  157 1   
   161  156  163 1   
   162  156  164 1   
   163  157  158 1   
   164  157  165 1   
   165  157  166 1   
   166  158  159 1   
   167  158  160 1   
   168  167  168 1   
   169  167  172 1   
   170  168  169 1   
   171  168  170 1   
   172  168  171 1   
   173  174  175 1   
   174  174  176 1   
   175  177  178 1   
   176  177  179 1   
   177  180  181 1   
   178  180  182 1   
@<TRIPOS>SUBSTRUCTURE
     1 MOL         1 TEMP              0 ****  ****    0 ROOT
