@<TRIPOS>MOLECULE
MOL
  175   173     1     0     0
SMALL
resp


@<TRIPOS>ATOM
      1 C1         -6.1450    8.3280    1.3420 c3        1 MOL     -0.402459
      2 C2         -7.0440    7.3960    0.4910 c         1 MOL      0.702778
      3 O1         -7.1890    7.5300   -0.7080 o         1 MOL     -0.561444
      4 H1         -6.7700    9.0380    1.8850 hc        1 MOL      0.097332
      5 H2         -5.5720    7.7330    2.0520 hc        1 MOL      0.097332
      6 H3         -5.4620    8.8720    0.6890 hc        1 MOL      0.097332
      7 N1         -7.7340    6.4040    1.1660 n         1 MOL     -0.603999
      8 C3         -8.5830    5.3950    0.4700 c3        1 MOL      0.181627
      9 C4         -7.7290    4.2440   -0.0670 c         1 MOL      0.566511
     10 O2         -8.1800    3.1200   -0.2130 o         1 MOL     -0.540308
     11 C5         -9.6930    4.8860    1.4960 c3        1 MOL     -0.213945
     12 C6        -10.7430    4.1600    0.7280 c         1 MOL      0.741668
     13 O3        -11.2480    4.5990   -0.3640 o         1 MOL     -0.733669
     14 O4        -11.3430    3.2830    1.3670 o         1 MOL     -0.733669
     15 H4         -7.5480    6.2700    2.1470 hn        1 MOL      0.290501
     16 H5         -9.0750    5.8780   -0.3790 h1        1 MOL      0.032920
     17 H6        -10.0500    5.6440    2.2040 hc        1 MOL      0.041589
     18 H7         -9.1560    4.1040    2.0270 hc        1 MOL      0.041589
     19 N2         -6.4420    4.5110   -0.4900 n         1 MOL     -0.611331
     20 C7         -5.5830    3.4620   -1.0170 c3        1 MOL      0.417135
     21 C8         -5.0520    2.4740    0.0060 c         1 MOL      0.428729
     22 O5         -4.4210    2.8550    1.0240 o         1 MOL     -0.557383
     23 C9         -4.4650    4.1680   -1.7900 c3        1 MOL     -0.479594
     24 H8         -6.0600    5.4330   -0.3680 hn        1 MOL      0.282265
     25 H9         -6.2150    2.9720   -1.7600 h1        1 MOL      0.026592
     26 H10        -3.9190    4.8500   -1.1360 hc        1 MOL      0.125980
     27 H11        -3.7430    3.4840   -2.2350 hc        1 MOL      0.125980
     28 H12        -4.9500    4.7530   -2.5790 hc        1 MOL      0.125980
     29 N3         -5.1520    1.1630   -0.2240 n         1 MOL     -0.254593
     30 C10        -5.7590    0.3230   -1.2530 c3        1 MOL     -0.182079
     31 C11        -6.1290   -1.0990   -0.6560 c         1 MOL      0.520084
     32 O6         -5.3950   -1.5700    0.2170 o         1 MOL     -0.494562
     33 C12        -4.7440    0.0670   -2.4430 c3        1 MOL     -0.123848
     34 C13        -3.3820   -0.3550   -2.0870 c         1 MOL      0.713472
     35 O7         -2.9530   -1.4630   -2.4500 o         1 MOL     -0.746838
     36 O8         -2.5910    0.3750   -1.4320 o         1 MOL     -0.746838
     37 H13        -4.7450    0.6070    0.5150 hn        1 MOL      0.231868
     38 H14        -6.6440    0.8680   -1.6000 h1        1 MOL      0.107689
     39 H15        -4.6040    0.9810   -3.0100 hc        1 MOL      0.039615
     40 H16        -5.1490   -0.6810   -3.1220 hc        1 MOL      0.039615
     41 N4         -7.1780   -1.7980   -1.0520 n         1 MOL     -0.412060
     42 C14        -7.4080   -3.1530   -0.4730 c3        1 MOL      0.128832
     43 C15        -7.2810   -4.3120   -1.4570 c         1 MOL      0.458170
     44 O9         -8.3060   -4.8110   -1.9570 o         1 MOL     -0.554262
     45 H17        -7.8840   -1.4270   -1.6710 hn        1 MOL      0.309643
     46 H18        -8.4490   -3.1520   -0.1590 h1        1 MOL      0.041286
     47 H19        -6.8830   -3.3190    0.4660 h1        1 MOL      0.041286
     48 N5         -6.1320   -4.9920   -1.6060 n         1 MOL     -0.427278
     49 C16        -4.7900   -4.5560   -1.0700 c3        1 MOL      0.003220
     50 C17        -4.4880   -4.9460    0.4350 c         1 MOL      0.568253
     51 O10        -4.5720   -6.0710    0.8130 o         1 MOL     -0.557496
     52 C18        -3.6760   -5.0900   -1.9440 c3        1 MOL     -0.176949
     53 C19        -2.2830   -4.5840   -1.6020 c         1 MOL      0.684397
     54 N6         -1.3150   -4.8360   -2.4510 n         1 MOL     -0.811257
     55 O11        -2.1110   -3.7840   -0.7020 o         1 MOL     -0.585534
     56 H20        -6.1540   -5.8590   -2.1220 hn        1 MOL      0.312621
     57 H21        -4.6400   -3.4780   -1.0220 h1        1 MOL      0.092446
     58 H22        -3.8800   -4.8620   -2.9870 hc        1 MOL      0.060630
     59 H23        -3.7270   -6.1790   -1.8580 hc        1 MOL      0.060630
     60 H24        -1.2690   -5.6970   -2.9920 hn        1 MOL      0.363863
     61 H25        -0.4270   -4.3990   -2.2990 hn        1 MOL      0.363863
     62 N7         -4.2190   -3.9480    1.2960 n         1 MOL     -0.290691
     63 C20        -3.7740   -4.1830    2.7080 c3        1 MOL     -0.100816
     64 C21        -2.2280   -4.4510    2.9570 c         1 MOL      0.443409
     65 O12        -1.8840   -4.9690    4.0150 o         1 MOL     -0.570062
     66 H26        -4.3180   -2.9790    1.0340 hn        1 MOL      0.230955
     67 H27        -4.4620   -4.8610    3.2190 h1        1 MOL      0.074831
     68 H28        -3.9330   -3.2110    3.1770 h1        1 MOL      0.074831
     69 N8         -1.3290   -4.1730    2.0440 n         1 MOL     -0.063061
     70 C22         0.1280   -4.5160    2.0910 c3        1 MOL     -0.125766
     71 C23         1.0730   -3.3280    1.7020 c         1 MOL      0.265386
     72 O13         0.6250   -2.4410    1.0310 o         1 MOL     -0.475505
     73 C24         0.5380   -5.7610    1.2330 c3        1 MOL      0.432816
     74 C25        -0.1100   -6.9700    1.8410 c3        1 MOL     -0.473024
     75 O14         0.1790   -5.6720   -0.1530 oh        1 MOL     -0.672028
     76 H29        -1.6630   -3.8610    1.1400 hn        1 MOL      0.188317
     77 H30         0.4330   -4.7440    3.1170 h1        1 MOL      0.051045
     78 H31         1.6080   -5.8930    1.3200 h1        1 MOL     -0.002379
     79 H32         0.8860   -5.1330   -0.5300 ho        1 MOL      0.460348
     80 H33        -1.1690   -6.9520    1.5670 hc        1 MOL      0.115633
     81 H34         0.3430   -7.9030    1.5010 hc        1 MOL      0.115633
     82 H35        -0.0670   -7.0650    2.9230 hc        1 MOL      0.115633
     83 N9          2.3190   -3.2750    2.3230 n         1 MOL     -0.191894
     84 C26         3.3980   -2.2480    2.3100 c3        1 MOL      0.225648
     85 C27         4.2690   -2.6250    1.0970 c         1 MOL      0.207811
     86 O15         5.2060   -3.3510    1.2610 o         1 MOL     -0.556144
     87 C28         4.0880   -2.1430    3.6580 c3        1 MOL      0.071562
     88 C29         5.3520   -1.2030    3.6040 c3        1 MOL      0.004924
     89 C30         3.1230   -1.7590    4.8190 c3        1 MOL     -0.331782
     90 C31         5.0270    0.2910    3.3810 c3        1 MOL     -0.082989
     91 H36         2.5800   -4.1270    2.7890 hn        1 MOL      0.206731
     92 H37         2.8260   -1.3230    2.2080 h1        1 MOL      0.054604
     93 H38         4.3970   -3.1710    3.8620 hc        1 MOL     -0.002931
     94 H39         6.0330   -1.6020    2.8510 hc        1 MOL      0.004973
     95 H40         5.9170   -1.2470    4.5340 hc        1 MOL      0.004973
     96 H41         3.7390   -1.6960    5.7140 hc        1 MOL      0.075333
     97 H42         2.6040   -0.8330    4.5500 hc        1 MOL      0.075333
     98 H43         2.4100   -2.5660    4.9900 hc        1 MOL      0.075333
     99 H44         5.9660    0.8320    3.4670 hc        1 MOL      0.022764
    100 H45         4.4520    0.5250    2.4790 hc        1 MOL      0.022764
    101 H46         4.2960    0.6130    4.1230 hc        1 MOL      0.022764
    102 N10         3.9060   -2.1470   -0.0790 n         1 MOL      0.212495
    103 C32         4.4660   -2.5600   -1.3480 c3        1 MOL      0.233711
    104 C33         5.5910   -1.6260   -1.8210 c         1 MOL      0.452483
    105 O16         6.1360   -1.7730   -2.8930 o         1 MOL     -0.542658
    106 C34         3.3890   -2.8290   -2.3920 c3        1 MOL     -0.330182
    107 C35         2.1320   -3.4890   -1.8440 c         1 MOL      0.838497
    108 O17         2.2880   -4.4910   -1.0820 o         1 MOL     -0.760502
    109 O18         1.0260   -2.9370   -2.0910 o         1 MOL     -0.760502
    110 H47         3.1130   -1.5150   -0.0790 hn        1 MOL     -0.193116
    111 H48         4.9360   -3.5310   -1.1960 h1        1 MOL      0.033558
    112 H49         3.7620   -3.4610   -3.1990 hc        1 MOL      0.082601
    113 H50         3.1020   -1.8720   -2.8360 hc        1 MOL      0.082601
    114 N11         5.9460   -0.6550   -0.9620 n         1 MOL     -0.609822
    115 C36         7.1570    0.1790   -0.9920 c3        1 MOL      0.504924
    116 C37         6.8110    1.5870   -0.3720 c         1 MOL      0.261211
    117 O19         6.1860    1.6060    0.7110 o         1 MOL     -0.542474
    118 C38         8.2490   -0.5310   -0.2440 c3        1 MOL     -0.325300
    119 C39         9.4570    0.3450   -0.1830 ca        1 MOL      0.033257
    120 C40         9.6080    1.4670    0.7410 ca        1 MOL     -0.135405
    121 C41        10.4090    0.2820   -1.1570 ca        1 MOL     -0.135405
    122 C42        10.7730    2.3240    0.6680 ca        1 MOL     -0.160121
    123 C43        11.5090    1.1420   -1.2960 ca        1 MOL     -0.160121
    124 C44        11.7040    2.1300   -0.3400 ca        1 MOL     -0.052056
    125 H51         5.3150   -0.5010   -0.1890 hn        1 MOL      0.248868
    126 H52         7.6380    0.2000   -1.9750 h1        1 MOL     -0.044260
    127 H53         8.5640   -1.4610   -0.7060 hc        1 MOL      0.132886
    128 H54         7.8550   -0.7090    0.7630 hc        1 MOL      0.132886
    129 H55         8.9650    1.5380    1.6110 ha        1 MOL      0.129091
    130 H56        10.2700   -0.3930   -1.9850 ha        1 MOL      0.129091
    131 H57        10.9210    3.1030    1.4030 ha        1 MOL      0.112668
    132 H58        12.1670    0.8750   -2.1040 ha        1 MOL      0.112668
    133 H59        12.5720    2.7610   -0.3940 ha        1 MOL      0.084738
    134 N12         7.1810    2.6710   -1.0860 n         1 MOL      0.024137
    135 C45         7.0840    4.1000   -0.7270 c3        1 MOL     -0.055917
    136 C46         5.6320    4.6220   -0.4420 c         1 MOL      0.408190
    137 O20         5.4790    5.8340   -0.3250 o         1 MOL     -0.545560
    138 C47         7.6840    4.9490   -1.9230 c3        1 MOL     -0.090054
    139 C48         8.5510    3.9720   -2.6920 c3        1 MOL     -0.112117
    140 C49         7.8590    2.6450   -2.3900 c3        1 MOL      0.341672
    141 H60         7.7190    4.1790    0.1610 h1        1 MOL      0.089513
    142 H61         6.9920    5.3940   -2.6420 hc        1 MOL      0.067817
    143 H62         8.3030    5.7810   -1.5920 hc        1 MOL      0.067817
    144 H63         8.4950    4.1560   -3.7660 hc        1 MOL      0.025361
    145 H64         9.5870    4.0540   -2.3660 hc        1 MOL      0.025361
    146 H65         7.0840    2.4170   -3.1120 h1        1 MOL     -0.069384
    147 H66         8.7180    1.9800   -2.3810 h1        1 MOL     -0.069384
    148 N13         4.5210    3.8450   -0.2150 n         1 MOL     -0.222358
    149 C50         3.0830    4.2050    0.0160 c3        1 MOL     -0.219289
    150 C51         2.8980    4.7740    1.4090 c         1 MOL      0.672108
    151 O21         1.7660    4.8590    1.7980 o         1 MOL     -0.521698
    152 C52         2.2170    2.9620   -0.3160 c3        1 MOL     -0.050784
    153 C53         2.4530    1.5600    0.2900 c3        1 MOL     -0.178626
    154 C54         1.3620    0.5840   -0.2490 c         1 MOL      0.741845
    155 O22         1.6450   -0.3580   -1.0180 o         1 MOL     -0.699050
    156 O23         0.1490    0.6520    0.1120 o         1 MOL     -0.699050
    157 H67         4.6840    2.8420   -0.2400 hn        1 MOL      0.073773
    158 H68         2.8830    4.9870   -0.7140 h1        1 MOL      0.139063
    159 H69         2.3400    2.7360   -1.3710 hc        1 MOL      0.075360
    160 H70         1.1760    3.2760   -0.2160 hc        1 MOL      0.075360
    161 H71         2.4240    1.5890    1.3710 hc        1 MOL      0.085189
    162 H72         3.4860    1.2710    0.1140 hc        1 MOL      0.085189
    163 N14         3.9360    5.1980    2.1300 n         1 MOL     -0.410327
    164 C55         3.7700    6.0740    3.2550 c3        1 MOL     -0.169959
    165 H73         3.1430    6.9180    2.9680 h1        1 MOL      0.086702
    166 H74         3.2960    5.5310    4.0720 h1        1 MOL      0.086702
    167 H75         4.7450    6.4400    3.5780 h1        1 MOL      0.086702
    168 H76         4.8590    5.2020    1.7030 hn        1 MOL      0.304748
    169 Ca1        -0.7330   -1.4460   -1.0310 Ca        1 MOL      1.777820
    170 O24        -2.3150   -1.3300    1.0530 oh        1 MOL     -0.826454
    171 H77        -2.0340   -0.9650    1.8910 ho        1 MOL      0.400129
    172 H78        -3.2070   -0.9900    0.9420 ho        1 MOL      0.400129
    173 O25        -0.1040   -0.2630   -3.3190 oh        1 MOL     -0.826454
    174 H79         0.3210    0.5120   -3.7000 ho        1 MOL      0.400129
    175 H80        -0.6930   -0.5640   -3.9980 ho        1 MOL      0.400129
@<TRIPOS>BOND
     1    1    2 1   
     2    1    4 1   
     3    1    5 1   
     4    1    6 1   
     5    2    3 2   
     6    2    7 1   
     7    7    8 1   
     8    7   15 1   
     9    8    9 1   
    10    8   11 1   
    11    8   16 1   
    12    9   10 2   
    13    9   19 1   
    14   11   12 1   
    15   11   17 1   
    16   11   18 1   
    17   12   13 1   
    18   12   14 1   
    19   19   20 1   
    20   19   24 1   
    21   20   21 1   
    22   20   23 1   
    23   20   25 1   
    24   21   22 2   
    25   21   29 1   
    26   23   26 1   
    27   23   27 1   
    28   23   28 1   
    29   29   30 1   
    30   29   37 1   
    31   30   31 1   
    32   30   33 1   
    33   30   38 1   
    34   31   32 2   
    35   31   41 1   
    36   33   34 1   
    37   33   39 1   
    38   33   40 1   
    39   34   35 1   
    40   34   36 1   
    41   41   42 1   
    42   41   45 1   
    43   42   43 1   
    44   42   46 1   
    45   42   47 1   
    46   43   44 2   
    47   43   48 1   
    48   48   49 1   
    49   48   56 1   
    50   49   50 1   
    51   49   52 1   
    52   49   57 1   
    53   50   51 2   
    54   50   62 1   
    55   52   53 1   
    56   52   58 1   
    57   52   59 1   
    58   53   54 1   
    59   53   55 2   
    60   54   60 1   
    61   54   61 1   
    62   62   63 1   
    63   62   66 1   
    64   63   64 1   
    65   63   67 1   
    66   63   68 1   
    67   64   65 2   
    68   64   69 1   
    69   69   70 1   
    70   69   76 1   
    71   70   71 1   
    72   70   73 1   
    73   70   77 1   
    74   71   72 2   
    75   71   83 1   
    76   73   74 1   
    77   73   75 1   
    78   73   78 1   
    79   74   80 1   
    80   74   81 1   
    81   74   82 1   
    82   75   79 1   
    83   83   84 1   
    84   83   91 1   
    85   84   85 1   
    86   84   87 1   
    87   84   92 1   
    88   85   86 2   
    89   85  102 1   
    90   87   88 1   
    91   87   89 1   
    92   87   93 1   
    93   88   90 1   
    94   88   94 1   
    95   88   95 1   
    96   89   96 1   
    97   89   97 1   
    98   89   98 1   
    99   90   99 1   
   100   90  100 1   
   101   90  101 1   
   102  102  103 1   
   103  102  110 1   
   104  103  104 1   
   105  103  106 1   
   106  103  111 1   
   107  104  105 2   
   108  104  114 1   
   109  106  107 1   
   110  106  112 1   
   111  106  113 1   
   112  107  108 1   
   113  107  109 1   
   114  114  115 1   
   115  114  125 1   
   116  115  116 1   
   117  115  118 1   
   118  115  126 1   
   119  116  117 2   
   120  116  134 1   
   121  118  119 1   
   122  118  127 1   
   123  118  128 1   
   124  119  120 ar  
   125  119  121 ar  
   126  120  122 ar  
   127  120  129 1   
   128  121  123 ar  
   129  121  130 1   
   130  122  124 ar  
   131  122  131 1   
   132  123  124 ar  
   133  123  132 1   
   134  124  133 1   
   135  134  135 1   
   136  134  140 1   
   137  135  136 1   
   138  135  138 1   
   139  135  141 1   
   140  136  137 2   
   141  136  148 1   
   142  138  139 1   
   143  138  142 1   
   144  138  143 1   
   145  139  140 1   
   146  139  144 1   
   147  139  145 1   
   148  140  146 1   
   149  140  147 1   
   150  148  149 1   
   151  148  157 1   
   152  149  150 1   
   153  149  152 1   
   154  149  158 1   
   155  150  151 2   
   156  150  163 1   
   157  152  153 1   
   158  152  159 1   
   159  152  160 1   
   160  153  154 1   
   161  153  161 1   
   162  153  162 1   
   163  154  155 1   
   164  154  156 1   
   165  163  164 1   
   166  163  168 1   
   167  164  165 1   
   168  164  166 1   
   169  164  167 1   
   170  170  171 1   
   171  170  172 1   
   172  173  174 1   
   173  173  175 1   
@<TRIPOS>SUBSTRUCTURE
     1 MOL         1 TEMP              0 ****  ****    0 ROOT
