@<TRIPOS>MOLECULE
MOL
  189   185     1     0     0
SMALL
resp


@<TRIPOS>ATOM
      1 C1         12.1940    4.7390   -3.2550 c3        1 MOL     -0.132753
      2 C2         11.9120    3.3490   -2.7540 c         1 MOL      0.604405
      3 O1         12.7640    2.5240   -2.8470 o         1 MOL     -0.590212
      4 H1         11.9630    4.7940   -4.3190 hc        1 MOL      0.033992
      5 H2         11.5760    5.4540   -2.7120 hc        1 MOL      0.033992
      6 H3         13.2470    4.9760   -3.0990 hc        1 MOL      0.033992
      7 N1         10.7780    3.0080   -2.2300 n         1 MOL     -0.146957
      8 C3         10.5880    1.7940   -1.4420 c3        1 MOL     -0.341678
      9 C4          9.1740    1.1980   -1.6750 c         1 MOL      0.492987
     10 O2          8.2820    1.8640   -2.2050 o         1 MOL     -0.574325
     11 C5         10.6470    2.0810    0.0650 c3        1 MOL      0.198210
     12 C6         10.0500    3.4870    0.4820 c         1 MOL      0.706786
     13 O3          9.3390    4.2170   -0.2440 o         1 MOL     -0.694720
     14 O4         10.5020    3.8580    1.5520 o         1 MOL     -0.694720
     15 H4         10.0970    3.7130   -2.0000 hn        1 MOL      0.031590
     16 H5         11.3550    1.0690   -1.7160 h1        1 MOL      0.126358
     17 H6         11.7000    2.1160    0.3690 hc        1 MOL     -0.001429
     18 H7         10.1470    1.2540    0.5750 hc        1 MOL     -0.001429
     19 N2          8.9340   -0.0060   -1.1430 n         1 MOL     -0.237238
     20 C7          7.8550   -0.8810   -1.5010 c3        1 MOL      0.014281
     21 C8          6.8590   -1.2360   -0.3340 c         1 MOL      0.487529
     22 O5          6.2140   -2.2980   -0.2650 o         1 MOL     -0.481922
     23 C9          8.5460   -2.1620   -2.1020 c3        1 MOL     -0.136280
     24 C10         7.7270   -2.9730   -3.0690 c3        1 MOL      0.106165
     25 C11         7.1990   -2.2110   -4.2470 c3        1 MOL     -0.189176
     26 C12         6.3660   -3.1340   -5.1670 c3        1 MOL      0.183249
     27 N3          5.9750   -2.4250   -6.3980 n4        1 MOL     -0.353641
     28 H8          9.7000   -0.4340   -0.6470 hn        1 MOL      0.245162
     29 H9          7.2530   -0.2980   -2.2060 h1        1 MOL      0.109462
     30 H10         8.8620   -2.8430   -1.3150 hc        1 MOL      0.048207
     31 H11         9.4830   -1.8730   -2.5860 hc        1 MOL      0.048207
     32 H12         6.8980   -3.4050   -2.5120 hc        1 MOL      0.022468
     33 H13         8.3740   -3.7870   -3.3780 hc        1 MOL      0.022468
     34 H14         8.0500   -1.9970   -4.9030 hc        1 MOL      0.054342
     35 H15         6.6060   -1.3490   -3.9250 hc        1 MOL      0.054342
     36 H16         5.4790   -3.3590   -4.5790 hx        1 MOL      0.032048
     37 H17         6.9790   -4.0110   -5.3920 hx        1 MOL      0.032048
     38 H18         5.9760   -3.0930   -7.1500 hn        1 MOL      0.325669
     39 H19         5.0680   -1.9970   -6.2900 hn        1 MOL      0.325669
     40 H20         6.6980   -1.7740   -6.6690 hn        1 MOL      0.325669
     41 N4          6.8030   -0.2370    0.5920 n         1 MOL     -0.456523
     42 C13         5.7600   -0.1950    1.6400 c3        1 MOL      0.015538
     43 C14         4.3170    0.0690    1.0920 c         1 MOL      0.201485
     44 O6          4.0930    0.4440   -0.0350 o         1 MOL     -0.497037
     45 C15         6.1640    0.9700    2.6240 c3        1 MOL     -0.404124
     46 C16         6.5420    2.3100    1.9390 c         1 MOL      1.117383
     47 O7          6.0630    3.3870    2.2560 o         1 MOL     -0.838901
     48 O8          7.4450    2.3770    1.0980 o         1 MOL     -0.838901
     49 H21         7.2950    0.6260    0.4070 hn        1 MOL      0.307304
     50 H22         5.7630   -1.1350    2.1950 h1        1 MOL      0.177419
     51 H23         7.0730    0.6750    3.1610 hc        1 MOL      0.116296
     52 H24         5.4000    1.1010    3.3840 hc        1 MOL      0.116296
     53 N5          3.2690   -0.0330    1.9020 n         1 MOL     -0.173531
     54 C17         3.1190   -0.6750    3.2550 c3        1 MOL     -0.395482
     55 C18         2.8610   -2.1690    3.1880 c         1 MOL      0.636747
     56 O9          3.1760   -2.8810    2.2160 o         1 MOL     -0.563511
     57 H25         2.4320    0.1970    1.3800 hn        1 MOL      0.277973
     58 H26         2.1380   -0.3790    3.6230 h1        1 MOL      0.161536
     59 H27         3.9780   -0.5010    3.8980 h1        1 MOL      0.161536
     60 N6          2.2730   -2.6940    4.2350 n         1 MOL     -0.398639
     61 C19         2.0580   -4.0920    4.5450 c3        1 MOL      0.108834
     62 C20         1.3160   -4.8550    3.4820 c         1 MOL      0.452050
     63 O10         0.0740   -4.6810    3.3950 o         1 MOL     -0.507559
     64 C21         1.5430   -4.2980    5.9780 c3        1 MOL     -0.227452
     65 C22         1.4480   -5.7820    6.3340 c         1 MOL      0.716437
     66 O11         1.9400   -6.6820    5.5710 o         1 MOL     -0.715994
     67 O12         0.8620   -6.0700    7.4340 o         1 MOL     -0.715994
     68 H28         2.0850   -2.0950    5.0180 hn        1 MOL      0.258358
     69 H29         3.0590   -4.5340    4.5590 h1        1 MOL     -0.004165
     70 H30         0.5760   -3.8000    6.0540 hc        1 MOL      0.056153
     71 H31         2.1590   -3.8670    6.7760 hc        1 MOL      0.056153
     72 N7          1.9770   -5.7060    2.6640 n         1 MOL     -0.149454
     73 C23         1.2860   -6.4350    1.6030 c3        1 MOL     -0.285387
     74 C24         1.0960   -5.5810    0.3840 c         1 MOL      0.536342
     75 O13         0.6950   -6.1050   -0.6970 o         1 MOL     -0.621058
     76 H32         2.9590   -5.9040    2.8090 hn        1 MOL      0.229583
     77 H33         0.2660   -6.6330    1.9170 h1        1 MOL      0.146851
     78 H34         1.8830   -7.3350    1.4550 h1        1 MOL      0.146851
     79 N8          1.2140   -4.2670    0.4920 n         1 MOL     -0.137700
     80 C25         0.8410   -3.2130   -0.5190 c3        1 MOL     -0.040493
     81 C26        -0.0730   -2.2030    0.1350 c         1 MOL      0.519553
     82 O14         0.2090   -1.6880    1.2110 o         1 MOL     -0.446336
     83 C27         2.1310   -2.4320   -0.9450 c3        1 MOL      0.276320
     84 C28         3.0920   -3.2530   -1.8120 c3        1 MOL     -0.242046
     85 O15         1.7220   -1.3350   -1.7780 oh        1 MOL     -0.655280
     86 H35         1.6410   -3.9910    1.3610 hn        1 MOL      0.025567
     87 H36         0.3290   -3.6150   -1.3970 h1        1 MOL      0.089653
     88 H37         2.5640   -1.9870   -0.0520 h1        1 MOL      0.130472
     89 H38         2.5320   -0.9590   -2.1250 ho        1 MOL      0.397861
     90 H39         3.9960   -2.6510   -1.9320 hc        1 MOL      0.058498
     91 H40         3.2390   -4.2360   -1.3600 hc        1 MOL      0.058498
     92 H41         2.7070   -3.3580   -2.8240 hc        1 MOL      0.058498
     93 N9         -1.1530   -1.7340   -0.5590 n         1 MOL     -0.586777
     94 C29        -2.0040   -0.6090   -0.1770 c3        1 MOL      0.300620
     95 C30        -3.4800   -0.9830   -0.1860 c         1 MOL      0.575072
     96 O16        -4.1780   -0.6520    0.7740 o         1 MOL     -0.537567
     97 C31        -1.6910    0.6870   -1.0400 c3        1 MOL      0.000552
     98 C32        -2.5560    1.9170   -0.7730 c3        1 MOL      0.049648
     99 C33        -1.8810    0.3100   -2.5250 c3        1 MOL     -0.255540
    100 C34        -2.4110    2.3680    0.6610 c3        1 MOL     -0.599438
    101 H42        -1.1960   -2.0120   -1.5310 hn        1 MOL      0.288347
    102 H43        -1.7860   -0.3470    0.8520 h1        1 MOL      0.019066
    103 H44        -0.6510    0.9390   -0.8290 hc        1 MOL      0.055261
    104 H45        -3.6070    1.7870   -1.0370 hc        1 MOL      0.040939
    105 H46        -2.2670    2.8240   -1.3070 hc        1 MOL      0.040939
    106 H47        -2.9410    0.2560   -2.7600 hc        1 MOL      0.047690
    107 H48        -1.4770    1.1680   -3.0760 hc        1 MOL      0.047690
    108 H49        -1.1970   -0.4970   -2.8170 hc        1 MOL      0.047690
    109 H50        -3.2100    1.8720    1.2140 hc        1 MOL      0.162151
    110 H51        -1.5450    2.0340    1.2200 hc        1 MOL      0.162151
    111 H52        -2.6290    3.4400    0.7170 hc        1 MOL      0.162151
    112 N10        -3.9330   -1.7120   -1.2070 n         1 MOL     -0.631312
    113 C35        -5.2610   -2.4060   -1.1060 c3        1 MOL      0.011229
    114 C36        -6.1020   -2.2370   -2.3140 c         1 MOL      0.748369
    115 O17        -5.6010   -2.2950   -3.4250 o         1 MOL     -0.509057
    116 C37        -5.0820   -3.8690   -0.6610 c3        1 MOL      0.327346
    117 C38        -6.3500   -4.5580   -0.1680 c3        1 MOL     -0.282726
    118 O18        -4.5190   -4.7180   -1.7040 oh        1 MOL     -0.641939
    119 H53        -3.2830   -1.9780   -1.9310 hn        1 MOL      0.322682
    120 H54        -5.7370   -2.0140   -0.2110 h1        1 MOL      0.091131
    121 H55        -4.3580   -3.8940    0.1560 h1        1 MOL      0.053403
    122 H56        -4.2670   -5.5480   -1.2900 ho        1 MOL      0.409960
    123 H57        -6.0340   -5.5240    0.2380 hc        1 MOL      0.064860
    124 H58        -6.8430   -3.9850    0.6220 hc        1 MOL      0.064860
    125 H59        -7.0480   -4.8170   -0.9620 hc        1 MOL      0.064860
    126 N11        -7.4490   -2.0600   -2.0760 n         1 MOL     -0.711758
    127 C39        -8.4440   -1.6470   -3.1000 c3        1 MOL      0.005515
    128 C40        -8.7280   -0.1820   -2.8510 c         1 MOL      0.684530
    129 O19        -8.8910    0.5200   -3.8200 o         1 MOL     -0.574100
    130 C41        -9.7790   -2.4390   -2.9600 c3        1 MOL      0.418418
    131 C42       -10.7380   -2.3910   -4.1940 c3        1 MOL     -0.467611
    132 O20       -10.4660   -1.9870   -1.7920 oh        1 MOL     -0.618662
    133 H60        -7.7690   -2.1530   -1.1220 hn        1 MOL      0.334340
    134 H61        -8.0370   -1.8460   -4.0890 h1        1 MOL      0.097927
    135 H62        -9.5370   -3.4760   -2.7330 h1        1 MOL      0.006797
    136 H63       -11.2350   -2.5490   -1.9090 ho        1 MOL      0.337116
    137 H64       -11.4910   -3.1470   -3.9710 hc        1 MOL      0.122075
    138 H65       -11.1360   -1.3740   -4.2290 hc        1 MOL      0.122075
    139 H66       -10.1870   -2.6730   -5.1020 hc        1 MOL      0.122075
    140 N12        -8.6140    0.3400   -1.5860 n         1 MOL     -0.468812
    141 C43        -9.0320    1.6860   -1.1410 c3        1 MOL      0.076044
    142 C44        -8.1350    2.2090    0.0340 c         1 MOL      0.503300
    143 O21        -7.5830    1.3990    0.7870 o         1 MOL     -0.471414
    144 C45       -10.5580    1.5740   -0.6470 c3        1 MOL     -0.083794
    145 C46       -11.7200    1.5690   -1.7100 c3        1 MOL     -0.122127
    146 C47       -13.0300    1.3300   -1.0080 c3        1 MOL      0.189434
    147 C48       -13.2900   -0.1880   -0.6970 c3        1 MOL     -0.002993
    148 N13       -14.5990   -0.4640   -0.1790 n4        1 MOL     -0.177015
    149 H67        -8.2950   -0.3260   -0.9010 hn        1 MOL      0.253345
    150 H68        -8.9060    2.3970   -1.9570 h1        1 MOL      0.069311
    151 H69       -10.7780    2.4400   -0.0320 hc        1 MOL      0.047429
    152 H70       -10.6340    0.6810   -0.0370 hc        1 MOL      0.047429
    153 H71       -11.4490    0.9050   -2.5270 hc        1 MOL      0.046077
    154 H72       -11.8370    2.5680   -2.1250 hc        1 MOL      0.046077
    155 H73       -13.7900    1.5290   -1.7700 hc        1 MOL     -0.022246
    156 H74       -13.1980    2.0480   -0.2090 hc        1 MOL     -0.022246
    157 H75       -12.5590   -0.4670    0.0580 hx        1 MOL      0.062793
    158 H76       -13.1500   -0.7330   -1.6330 hx        1 MOL      0.062793
    159 H77       -15.2530   -0.4150   -0.9500 hn        1 MOL      0.222170
    160 H78       -14.6880   -1.4360    0.0900 hn        1 MOL      0.222170
    161 H79       -14.8860    0.1430    0.5730 hn        1 MOL      0.222170
    162 N14        -8.0470    3.5550    0.1660 n         1 MOL     -0.523827
    163 C49        -7.4800    4.1790    1.4050 c3        1 MOL      0.263928
    164 C50        -5.9530    4.3040    1.4530 c         1 MOL      0.513862
    165 O22        -5.2430    3.6090    2.2100 o         1 MOL     -0.567110
    166 C51        -8.1710    5.4810    1.7510 c3        1 MOL     -0.083168
    167 C52        -7.8850    6.0580    3.1450 c3        1 MOL     -0.199803
    168 C53        -8.4520    7.4520    3.3950 c         1 MOL      0.754185
    169 O23        -8.8760    8.1040    2.4420 o         1 MOL     -0.660516
    170 O24        -8.4990    7.8960    4.5840 o         1 MOL     -0.660516
    171 H80        -8.6550    4.0780   -0.4380 hn        1 MOL      0.291186
    172 H81        -7.6210    3.4720    2.2280 h1        1 MOL      0.026441
    173 H82        -9.2260    5.2650    1.6380 hc        1 MOL      0.014865
    174 H83        -7.9340    6.2850    1.0510 hc        1 MOL      0.014865
    175 H84        -6.7960    6.0910    3.2320 hc        1 MOL      0.032152
    176 H85        -8.3150    5.3680    3.8660 hc        1 MOL      0.032152
    177 N15        -5.3200    5.0960    0.6120 n         1 MOL     -0.376733
    178 C54        -5.6470    5.4340   -0.7930 c3        1 MOL      0.046769
    179 H86        -5.2570    4.6590   -1.4530 h1        1 MOL      0.026554
    180 H87        -6.7290    5.5000   -0.9100 h1        1 MOL      0.026554
    181 H88        -5.1950    6.3920   -1.0510 h1        1 MOL      0.026554
    182 H89        -4.3550    5.1340    0.8980 hn        1 MOL      0.266295
    183 Ca1         6.9560    4.9340    0.1990 Ca        1 MOL      1.684089
    184 O25         8.3340    5.3770    2.5480 oh        1 MOL     -0.803099
    185 H90         9.2250    5.2210    2.2440 ho        1 MOL      0.386296
    186 H91         8.3710    6.2320    2.9820 ho        1 MOL      0.386296
    187 O26         6.1970    3.1560   -1.5200 oh        1 MOL     -0.803099
    188 H92         7.0080    2.6510   -1.6390 ho        1 MOL      0.386296
    189 H93         5.9280    3.3990   -2.4130 ho        1 MOL      0.386296
@<TRIPOS>BOND
     1    1    2 1   
     2    1    4 1   
     3    1    5 1   
     4    1    6 1   
     5    2    3 2   
     6    2    7 1   
     7    7    8 1   
     8    7   15 1   
     9    8    9 1   
    10    8   11 1   
    11    8   16 1   
    12    9   10 2   
    13    9   19 1   
    14   11   12 1   
    15   11   17 1   
    16   11   18 1   
    17   12   13 1   
    18   12   14 1   
    19   19   20 1   
    20   19   28 1   
    21   20   21 1   
    22   20   23 1   
    23   20   29 1   
    24   21   22 2   
    25   21   41 1   
    26   23   24 1   
    27   23   30 1   
    28   23   31 1   
    29   24   25 1   
    30   24   32 1   
    31   24   33 1   
    32   25   26 1   
    33   25   34 1   
    34   25   35 1   
    35   26   27 1   
    36   26   36 1   
    37   26   37 1   
    38   27   38 1   
    39   27   39 1   
    40   27   40 1   
    41   41   42 1   
    42   41   49 1   
    43   42   43 1   
    44   42   45 1   
    45   42   50 1   
    46   43   44 2   
    47   43   53 1   
    48   45   46 1   
    49   45   51 1   
    50   45   52 1   
    51   46   47 1   
    52   46   48 1   
    53   53   54 1   
    54   53   57 1   
    55   54   55 1   
    56   54   58 1   
    57   54   59 1   
    58   55   56 2   
    59   55   60 1   
    60   60   61 1   
    61   60   68 1   
    62   61   62 1   
    63   61   64 1   
    64   61   69 1   
    65   62   63 2   
    66   62   72 1   
    67   64   65 1   
    68   64   70 1   
    69   64   71 1   
    70   65   66 1   
    71   65   67 1   
    72   72   73 1   
    73   72   76 1   
    74   73   74 1   
    75   73   77 1   
    76   73   78 1   
    77   74   75 2   
    78   74   79 1   
    79   79   80 1   
    80   79   86 1   
    81   80   81 1   
    82   80   83 1   
    83   80   87 1   
    84   81   82 2   
    85   81   93 1   
    86   83   84 1   
    87   83   85 1   
    88   83   88 1   
    89   84   90 1   
    90   84   91 1   
    91   84   92 1   
    92   85   89 1   
    93   93   94 1   
    94   93  101 1   
    95   94   95 1   
    96   94   97 1   
    97   94  102 1   
    98   95   96 2   
    99   95  112 1   
   100   97   98 1   
   101   97   99 1   
   102   97  103 1   
   103   98  100 1   
   104   98  104 1   
   105   98  105 1   
   106   99  106 1   
   107   99  107 1   
   108   99  108 1   
   109  100  109 1   
   110  100  110 1   
   111  100  111 1   
   112  112  113 1   
   113  112  119 1   
   114  113  114 1   
   115  113  116 1   
   116  113  120 1   
   117  114  115 2   
   118  114  126 1   
   119  116  117 1   
   120  116  118 1   
   121  116  121 1   
   122  117  123 1   
   123  117  124 1   
   124  117  125 1   
   125  118  122 1   
   126  126  127 1   
   127  126  133 1   
   128  127  128 1   
   129  127  130 1   
   130  127  134 1   
   131  128  129 2   
   132  128  140 1   
   133  130  131 1   
   134  130  132 1   
   135  130  135 1   
   136  131  137 1   
   137  131  138 1   
   138  131  139 1   
   139  132  136 1   
   140  140  141 1   
   141  140  149 1   
   142  141  142 1   
   143  141  144 1   
   144  141  150 1   
   145  142  143 2   
   146  142  162 1   
   147  144  145 1   
   148  144  151 1   
   149  144  152 1   
   150  145  146 1   
   151  145  153 1   
   152  145  154 1   
   153  146  147 1   
   154  146  155 1   
   155  146  156 1   
   156  147  148 1   
   157  147  157 1   
   158  147  158 1   
   159  148  159 1   
   160  148  160 1   
   161  148  161 1   
   162  162  163 1   
   163  162  171 1   
   164  163  164 1   
   165  163  166 1   
   166  163  172 1   
   167  164  165 2   
   168  164  177 1   
   169  166  167 1   
   170  166  173 1   
   171  166  174 1   
   172  167  168 1   
   173  167  175 1   
   174  167  176 1   
   175  168  169 1   
   176  168  170 1   
   177  177  178 1   
   178  177  182 1   
   179  178  179 1   
   180  178  180 1   
   181  178  181 1   
   182  184  185 1   
   183  184  186 1   
   184  187  188 1   
   185  187  189 1   
@<TRIPOS>SUBSTRUCTURE
     1 MOL         1 TEMP              0 ****  ****    0 ROOT
