@<TRIPOS>MOLECULE
MOL
  181   177     1     0     0
SMALL
resp


@<TRIPOS>ATOM
      1 C1          1.7190    6.4240   -1.2560 c3        1 MOL     -0.383036
      2 C2          3.1150    6.5310   -0.6050 c         1 MOL      0.661056
      3 O1          3.1990    7.0490    0.5390 o         1 MOL     -0.587847
      4 H1          0.9770    6.8780   -0.6010 hc        1 MOL      0.096478
      5 H2          1.7240    6.9430   -2.2150 hc        1 MOL      0.096478
      6 H3          1.4700    5.3740   -1.4120 hc        1 MOL      0.096478
      7 N1          4.1460    6.1960   -1.3100 n         1 MOL     -0.501813
      8 C3          5.5390    6.1430   -0.9130 c3        1 MOL      0.209289
      9 C4          5.8860    4.7590   -0.2290 c         1 MOL      0.417963
     10 O2          6.6200    3.8930   -0.7590 o         1 MOL     -0.465784
     11 C5          6.5490    6.4410   -2.0820 c3        1 MOL     -0.261025
     12 C6          7.9980    6.4800   -1.7100 c         1 MOL      0.752702
     13 O3          8.7950    6.6080   -2.6360 o         1 MOL     -0.728734
     14 O4          8.3360    6.4720   -0.4550 o         1 MOL     -0.728734
     15 H4          3.9580    5.7020   -2.1750 hn        1 MOL      0.276470
     16 H5          5.6210    6.8500   -0.0810 h1        1 MOL      0.045187
     17 H6          6.2980    7.4450   -2.4200 hc        1 MOL      0.039417
     18 H7          6.3720    5.7200   -2.8880 hc        1 MOL      0.039417
     19 N2          5.2330    4.5110    0.8880 n         1 MOL     -0.547127
     20 C7          5.4810    3.4680    1.8790 c3        1 MOL      0.604363
     21 C8          4.0950    2.9960    2.5220 c         1 MOL      0.328078
     22 O5          3.0180    3.5040    2.4120 o         1 MOL     -0.517875
     23 C9          6.4540    3.9300    2.9270 c3        1 MOL     -0.364798
     24 H8          4.4580    5.0920    1.1550 hn        1 MOL      0.239675
     25 H9          5.8330    2.5860    1.3370 h1        1 MOL     -0.098650
     26 H10         7.4730    3.9410    2.5380 hc        1 MOL      0.088062
     27 H11         6.2030    4.9180    3.3230 hc        1 MOL      0.088062
     28 H12         6.4860    3.2220    3.7530 hc        1 MOL      0.088062
     29 N3          3.9710    1.7020    2.9850 n         1 MOL     -0.108314
     30 C10         5.0210    0.7090    3.1030 c3        1 MOL     -0.394354
     31 C11         5.3440   -0.0050    1.8130 c         1 MOL      0.596751
     32 O6          4.5330   -0.2040    0.9890 o         1 MOL     -0.509156
     33 C12         4.6660   -0.3850    4.1580 c3        1 MOL     -0.088073
     34 C13         3.1750   -0.8420    4.3220 c         1 MOL      0.662642
     35 O7          2.8270   -1.4780    5.3810 o         1 MOL     -0.671127
     36 O8          2.3930   -0.6780    3.3700 o         1 MOL     -0.671127
     37 H13         3.0640    1.3770    3.2880 hn        1 MOL      0.164563
     38 H14         5.9300    1.2620    3.3140 h1        1 MOL      0.145837
     39 H15         4.9830   -0.0140    5.1340 hc        1 MOL      0.040605
     40 H16         5.2530   -1.2780    3.9680 hc        1 MOL      0.040605
     41 N4          6.5860   -0.3570    1.6400 n         1 MOL     -0.298138
     42 C14         6.9900   -1.4210    0.6540 c3        1 MOL      0.025071
     43 C15         7.9640   -1.0020   -0.4510 c         1 MOL      0.623170
     44 O9          8.5820    0.0650   -0.4350 o         1 MOL     -0.521284
     45 H17         7.2570    0.1720    2.1780 hn        1 MOL      0.232872
     46 H18         6.1280   -1.7550    0.0770 h1        1 MOL      0.009347
     47 H19         7.3870   -2.2710    1.1990 h1        1 MOL      0.009347
     48 N5          8.2510   -1.8260   -1.4830 n         1 MOL     -0.649103
     49 C16         7.4810   -3.0620   -1.8280 c3        1 MOL      0.209142
     50 C17         6.0840   -2.7170   -2.4560 c         1 MOL      0.612519
     51 O10         5.8710   -1.7580   -3.1570 o         1 MOL     -0.513431
     52 C18         8.2660   -3.9340   -2.7660 c3        1 MOL     -0.500199
     53 C19         7.6090   -5.1370   -3.3360 c         1 MOL      0.724500
     54 N6          7.4450   -6.1830   -2.5850 n         1 MOL     -0.812573
     55 O11         7.2180   -5.1290   -4.5180 o         1 MOL     -0.558449
     56 H20         8.9480   -1.5040   -2.1410 hn        1 MOL      0.377749
     57 H21         7.2730   -3.6020   -0.8950 h1        1 MOL      0.001081
     58 H22         9.1340   -4.3180   -2.2250 hc        1 MOL      0.137836
     59 H23         8.7290   -3.3370   -3.5480 hc        1 MOL      0.137836
     60 H24         7.7410   -6.0440   -1.6330 hn        1 MOL      0.381253
     61 H25         7.0780   -7.0440   -2.9720 hn        1 MOL      0.381253
     62 N7          5.2040   -3.6090   -2.0780 n         1 MOL     -0.196250
     63 C20         3.8030   -3.4990   -2.4210 c3        1 MOL     -0.441762
     64 C21         2.9050   -4.6520   -1.9010 c         1 MOL      0.700499
     65 O12         3.0900   -5.7900   -2.3800 o         1 MOL     -0.557918
     66 H26         5.3860   -4.3050   -1.3750 hn        1 MOL      0.188909
     67 H27         3.6980   -3.4770   -3.5140 h1        1 MOL      0.160513
     68 H28         3.5330   -2.5420   -1.9870 h1        1 MOL      0.160513
     69 N8          1.8770   -4.3080   -1.1150 n         1 MOL     -0.417855
     70 C22         0.6550   -5.0590   -0.7020 c3        1 MOL     -0.179741
     71 C23        -0.4860   -4.0130   -0.3180 c         1 MOL      0.532739
     72 O13        -0.1810   -2.8880    0.0850 o         1 MOL     -0.439767
     73 C24         0.9410   -5.9810    0.4980 c3        1 MOL      0.497740
     74 C25         1.5390   -7.3590    0.0160 c3        1 MOL     -0.386520
     75 O14         1.7320   -5.4230    1.4580 oh        1 MOL     -0.658008
     76 H29         1.7990   -3.3060   -1.0090 hn        1 MOL      0.285571
     77 H30         0.1970   -5.7180   -1.4420 h1        1 MOL      0.103409
     78 H31        -0.0090   -6.1760    0.9910 h1        1 MOL     -0.055120
     79 H32         1.2000   -4.7240    1.8470 ho        1 MOL      0.435087
     80 H33         2.6020   -7.4370   -0.1920 hc        1 MOL      0.096150
     81 H34         1.4020   -8.0600    0.8400 hc        1 MOL      0.096150
     82 H35         1.0200   -7.7240   -0.8560 hc        1 MOL      0.096150
     83 N9         -1.7490   -4.3260   -0.6080 n         1 MOL     -0.382440
     84 C26        -2.8010   -3.3080   -0.5830 c3        1 MOL     -0.004684
     85 C27        -3.6990   -3.3680    0.6880 c         1 MOL      0.375040
     86 O15        -4.4310   -4.3260    0.8950 o         1 MOL     -0.569891
     87 C28        -3.5960   -3.1860   -1.8620 c3        1 MOL      0.576395
     88 C29        -4.6690   -2.1180   -1.8340 c3        1 MOL      0.004758
     89 C30        -2.7180   -3.0090   -3.1080 c3        1 MOL     -0.406418
     90 C31        -5.3950   -2.0330   -3.2080 c3        1 MOL     -0.279090
     91 H36        -1.8640   -5.2210   -1.0520 hn        1 MOL      0.245852
     92 H37        -2.2810   -2.3530   -0.5760 h1        1 MOL     -0.081481
     93 H38        -4.0630   -4.1540   -2.0480 hc        1 MOL     -0.129454
     94 H39        -4.1660   -1.1760   -1.5870 hc        1 MOL     -0.008766
     95 H40        -5.4440   -2.4540   -1.1490 hc        1 MOL     -0.008766
     96 H41        -3.2240   -3.3420   -4.0120 hc        1 MOL      0.077580
     97 H42        -2.6240   -1.9200   -3.1530 hc        1 MOL      0.077580
     98 H43        -1.7870   -3.5680   -3.0150 hc        1 MOL      0.077580
     99 H44        -5.9880   -1.1270   -3.2510 hc        1 MOL      0.058388
    100 H45        -4.7800   -2.1640   -4.0960 hc        1 MOL      0.058388
    101 H46        -6.0850   -2.8720   -3.2550 hc        1 MOL      0.058388
    102 N10        -3.6970   -2.2450    1.3990 n         1 MOL     -0.018266
    103 C32        -4.5540   -2.1550    2.5980 c3        1 MOL      0.063435
    104 C33        -5.8680   -1.4390    2.2890 c         1 MOL      0.467476
    105 O16        -6.8020   -1.8240    2.9720 o         1 MOL     -0.551314
    106 C34        -3.8750   -1.3770    3.7590 c3        1 MOL     -0.051649
    107 C35        -2.3480   -1.6620    3.9750 c         1 MOL      0.678767
    108 O17        -1.9710   -2.7990    4.3960 o         1 MOL     -0.731268
    109 O18        -1.5250   -0.8880    3.4650 o         1 MOL     -0.731268
    110 H47        -3.2000   -1.4610    1.0150 hn        1 MOL      0.038690
    111 H48        -4.8520   -3.1010    3.0500 h1        1 MOL      0.074152
    112 H49        -4.4350   -1.4950    4.6920 hc        1 MOL      0.000951
    113 H50        -4.0520   -0.3210    3.5340 hc        1 MOL      0.000951
    114 N11        -5.8790   -0.5060    1.3140 n         1 MOL     -0.459256
    115 C36        -7.1370   -0.0010    0.7270 c3        1 MOL      0.212749
    116 C37        -6.9030    1.4190    0.1480 c         1 MOL      0.240226
    117 O19        -7.0270    1.6700   -1.0490 o         1 MOL     -0.496648
    118 C38        -7.8090   -1.0010   -0.2740 c3        1 MOL     -0.384454
    119 C39        -9.1570   -0.7180   -0.8400 ca        1 MOL      0.183457
    120 C40        -9.2500   -0.2070   -2.1930 ca        1 MOL     -0.157955
    121 C41       -10.3120   -1.1450   -0.2530 ca        1 MOL     -0.157955
    122 C42       -10.5360    0.0080   -2.7520 ca        1 MOL     -0.140268
    123 C43       -11.5870   -1.0040   -0.7810 ca        1 MOL     -0.140268
    124 C44       -11.6620   -0.3640   -2.0240 ca        1 MOL     -0.114408
    125 H51        -4.9680   -0.2260    0.9930 hn        1 MOL      0.322497
    126 H52        -7.9200    0.1690    1.4650 h1        1 MOL      0.043606
    127 H53        -7.7680   -1.9900    0.1850 hc        1 MOL      0.146439
    128 H54        -7.1310   -1.0750   -1.1260 hc        1 MOL      0.146439
    129 H55        -8.3900    0.0880   -2.7730 ha        1 MOL      0.118455
    130 H56       -10.2880   -1.5010    0.7600 ha        1 MOL      0.118455
    131 H57       -10.6260    0.4310   -3.7350 ha        1 MOL      0.113273
    132 H58       -12.5080   -1.2920   -0.2950 ha        1 MOL      0.113273
    133 H59       -12.6170   -0.1300   -2.4820 ha        1 MOL      0.086517
    134 N12        -6.5260    2.3720    0.9760 n         1 MOL      0.104772
    135 C45        -6.3460    3.7720    0.4850 c3        1 MOL     -0.077545
    136 C46        -5.1730    4.1290   -0.4930 c         1 MOL      0.319411
    137 O20        -5.1100    5.3520   -0.8830 o         1 MOL     -0.486734
    138 C47        -6.1910    4.5740    1.7710 c3        1 MOL     -0.131484
    139 C48        -6.9970    3.7520    2.8470 c3        1 MOL     -0.058950
    140 C49        -6.5400    2.3440    2.4040 c3        1 MOL     -0.070594
    141 H60        -7.3080    4.0680    0.0690 h1        1 MOL      0.105702
    142 H61        -5.1240    4.7030    1.9600 hc        1 MOL      0.072879
    143 H62        -6.7240    5.5130    1.6850 hc        1 MOL      0.072879
    144 H63        -6.7600    3.9770    3.8860 hc        1 MOL      0.038791
    145 H64        -8.0610    3.8870    2.6640 hc        1 MOL      0.038791
    146 H65        -5.5010    2.1690    2.6770 h1        1 MOL      0.058933
    147 H66        -7.1830    1.5290    2.7560 h1        1 MOL      0.058933
    148 N13        -4.3480    3.1690   -0.8950 n         1 MOL     -0.119771
    149 C50        -3.6660    3.1410   -2.1730 c3        1 MOL     -0.243949
    150 C51        -4.6410    3.5340   -3.3420 c         1 MOL      0.573311
    151 O21        -4.2640    4.3610   -4.1400 o         1 MOL     -0.543708
    152 C52        -3.0320    1.7190   -2.3940 c3        1 MOL      0.074508
    153 C53        -1.9910    1.3050   -1.3520 c3        1 MOL     -0.094294
    154 C54        -2.3880    0.5030   -0.1210 c         1 MOL      0.634995
    155 O22        -1.5710   -0.2270    0.4610 o         1 MOL     -0.642085
    156 O23        -3.5260    0.6800    0.3860 o         1 MOL     -0.642085
    157 H67        -4.4320    2.2660   -0.4460 hn        1 MOL      0.167659
    158 H68        -2.8710    3.8960   -2.2000 h1        1 MOL      0.126998
    159 H69        -2.6200    1.7000   -3.4030 hc        1 MOL     -0.002599
    160 H70        -3.8960    1.0470   -2.4210 hc        1 MOL     -0.002599
    161 H71        -1.4040    2.1480   -1.0100 hc        1 MOL      0.045762
    162 H72        -1.2610    0.7190   -1.9250 hc        1 MOL      0.045762
    163 N14        -5.8660    3.0120   -3.3790 n         1 MOL     -0.339733
    164 C55        -6.9860    3.4000   -4.3140 c3        1 MOL     -0.132510
    165 H73        -7.8810    3.6240   -3.7340 h1        1 MOL      0.078145
    166 H74        -6.6940    4.2820   -4.8850 h1        1 MOL      0.078145
    167 H75        -7.1910    2.5760   -4.9970 h1        1 MOL      0.078145
    168 H76        -6.1090    2.1940   -2.8370 hn        1 MOL      0.293300
    169 Ca1         0.5580   -0.8290    1.7660 Ca        1 MOL      1.728767
    170 O24         0.6390   -3.1610    3.0240 oh        1 MOL     -0.953206
    171 H77         1.3170   -3.4790    3.6320 ho        1 MOL      0.451266
    172 H78        -0.1740   -3.2070    3.5290 ho        1 MOL      0.451266
    173 O25         0.8270    1.8640    1.7790 oh        1 MOL     -0.953206
    174 H79         0.0500    2.4250    1.7680 ho        1 MOL      0.451266
    175 H80         1.5110    2.4170    2.1660 ho        1 MOL      0.451266
    176 O26         2.9080   -2.2790    1.0120 oh        1 MOL     -0.953206
    177 H81         3.5780   -1.6130    0.8300 ho        1 MOL      0.451266
    178 H82         3.3810   -2.9720    1.4760 ho        1 MOL      0.451266
    179 O27         2.2020    0.0890   -0.2240 oh        1 MOL     -0.953206
    180 H83         3.0490   -0.0380    0.2090 ho        1 MOL      0.451266
    181 H84         2.2360    0.9740   -0.5680 ho        1 MOL      0.451266
@<TRIPOS>BOND
     1    1    2 1   
     2    1    4 1   
     3    1    5 1   
     4    1    6 1   
     5    2    3 2   
     6    2    7 1   
     7    7    8 1   
     8    7   15 1   
     9    8    9 1   
    10    8   11 1   
    11    8   16 1   
    12    9   10 2   
    13    9   19 1   
    14   11   12 1   
    15   11   17 1   
    16   11   18 1   
    17   12   13 1   
    18   12   14 1   
    19   19   20 1   
    20   19   24 1   
    21   20   21 1   
    22   20   23 1   
    23   20   25 1   
    24   21   22 2   
    25   21   29 1   
    26   23   26 1   
    27   23   27 1   
    28   23   28 1   
    29   29   30 1   
    30   29   37 1   
    31   30   31 1   
    32   30   33 1   
    33   30   38 1   
    34   31   32 2   
    35   31   41 1   
    36   33   34 1   
    37   33   39 1   
    38   33   40 1   
    39   34   35 1   
    40   34   36 1   
    41   41   42 1   
    42   41   45 1   
    43   42   43 1   
    44   42   46 1   
    45   42   47 1   
    46   43   44 2   
    47   43   48 1   
    48   48   49 1   
    49   48   56 1   
    50   49   50 1   
    51   49   52 1   
    52   49   57 1   
    53   50   51 2   
    54   50   62 1   
    55   52   53 1   
    56   52   58 1   
    57   52   59 1   
    58   53   54 1   
    59   53   55 2   
    60   54   60 1   
    61   54   61 1   
    62   62   63 1   
    63   62   66 1   
    64   63   64 1   
    65   63   67 1   
    66   63   68 1   
    67   64   65 2   
    68   64   69 1   
    69   69   70 1   
    70   69   76 1   
    71   70   71 1   
    72   70   73 1   
    73   70   77 1   
    74   71   72 2   
    75   71   83 1   
    76   73   74 1   
    77   73   75 1   
    78   73   78 1   
    79   74   80 1   
    80   74   81 1   
    81   74   82 1   
    82   75   79 1   
    83   83   84 1   
    84   83   91 1   
    85   84   85 1   
    86   84   87 1   
    87   84   92 1   
    88   85   86 2   
    89   85  102 1   
    90   87   88 1   
    91   87   89 1   
    92   87   93 1   
    93   88   90 1   
    94   88   94 1   
    95   88   95 1   
    96   89   96 1   
    97   89   97 1   
    98   89   98 1   
    99   90   99 1   
   100   90  100 1   
   101   90  101 1   
   102  102  103 1   
   103  102  110 1   
   104  103  104 1   
   105  103  106 1   
   106  103  111 1   
   107  104  105 2   
   108  104  114 1   
   109  106  107 1   
   110  106  112 1   
   111  106  113 1   
   112  107  108 1   
   113  107  109 1   
   114  114  115 1   
   115  114  125 1   
   116  115  116 1   
   117  115  118 1   
   118  115  126 1   
   119  116  117 2   
   120  116  134 1   
   121  118  119 1   
   122  118  127 1   
   123  118  128 1   
   124  119  120 ar  
   125  119  121 ar  
   126  120  122 ar  
   127  120  129 1   
   128  121  123 ar  
   129  121  130 1   
   130  122  124 ar  
   131  122  131 1   
   132  123  124 ar  
   133  123  132 1   
   134  124  133 1   
   135  134  135 1   
   136  134  140 1   
   137  135  136 1   
   138  135  138 1   
   139  135  141 1   
   140  136  137 2   
   141  136  148 1   
   142  138  139 1   
   143  138  142 1   
   144  138  143 1   
   145  139  140 1   
   146  139  144 1   
   147  139  145 1   
   148  140  146 1   
   149  140  147 1   
   150  148  149 1   
   151  148  157 1   
   152  149  150 1   
   153  149  152 1   
   154  149  158 1   
   155  150  151 2   
   156  150  163 1   
   157  152  153 1   
   158  152  159 1   
   159  152  160 1   
   160  153  154 1   
   161  153  161 1   
   162  153  162 1   
   163  154  155 1   
   164  154  156 1   
   165  163  164 1   
   166  163  168 1   
   167  164  165 1   
   168  164  166 1   
   169  164  167 1   
   170  170  171 1   
   171  170  172 1   
   172  173  174 1   
   173  173  175 1   
   174  176  177 1   
   175  176  178 1   
   176  179  180 1   
   177  179  181 1   
@<TRIPOS>SUBSTRUCTURE
     1 MOL         1 TEMP              0 ****  ****    0 ROOT
