@<TRIPOS>MOLECULE
MOL
  191   184     1     0     0
SMALL
resp


@<TRIPOS>ATOM
      1 C1          4.8490    2.1210    5.4260 c3        1 MOL     -0.337853
      2 C2          4.4420    1.6780    3.9820 c         1 MOL      0.493802
      3 O1          3.2300    1.4110    3.6800 o         1 MOL     -0.560343
      4 H1          4.8330    1.2560    6.0890 hc        1 MOL      0.091679
      5 H2          5.8540    2.5450    5.4080 hc        1 MOL      0.091679
      6 H3          4.1450    2.8700    5.7890 hc        1 MOL      0.091679
      7 N1          5.3810    1.8390    3.0690 n         1 MOL     -0.408148
      8 C3          5.0970    1.7020    1.5510 c3        1 MOL      0.287785
      9 C4          5.2120    0.1990    1.0500 c         1 MOL      0.281127
     10 O2          4.5070   -0.2610    0.1500 o         1 MOL     -0.489113
     11 C5          6.0150    2.5170    0.6870 c3        1 MOL     -0.215206
     12 C6          7.4110    2.6340    1.3680 c         1 MOL      0.756044
     13 O3          8.2760    1.7940    1.1250 o         1 MOL     -0.686800
     14 O4          7.5750    3.4970    2.2570 o         1 MOL     -0.686800
     15 H4          6.2490    2.2580    3.3640 hn        1 MOL      0.248321
     16 H5          4.0550    1.9370    1.3800 h1        1 MOL      0.036728
     17 H6          5.5370    3.4860    0.5090 hc        1 MOL      0.034891
     18 H7          6.1600    2.1030   -0.3120 hc        1 MOL      0.034891
     19 N2          6.1650   -0.5430    1.6870 n         1 MOL     -0.331186
     20 C7          6.2440   -2.0110    1.6850 c3        1 MOL      0.185549
     21 C8          6.5650   -2.5660    0.3040 c         1 MOL      0.303247
     22 O5          7.6130   -2.3090   -0.3650 o         1 MOL     -0.474268
     23 C9          7.2550   -2.5060    2.7480 c3        1 MOL     -0.445518
     24 C10         6.9390   -1.9850    4.1300 c3        1 MOL     -0.109104
     25 C11         7.7760   -2.7280    5.2170 c3        1 MOL      0.482277
     26 C12         7.6350   -2.0670    6.6030 c3        1 MOL     -0.093527
     27 N3          8.3360   -2.8060    7.6940 n4        1 MOL     -0.296261
     28 H8          6.7530   -0.0320    2.3260 hn        1 MOL      0.298027
     29 H9          5.2680   -2.3740    1.9960 h1        1 MOL      0.055857
     30 H10         8.1720   -2.0320    2.3920 hc        1 MOL      0.157654
     31 H11         7.2900   -3.6030    2.7770 hc        1 MOL      0.157654
     32 H12         5.9010   -2.1750    4.4060 hc        1 MOL      0.030107
     33 H13         7.2440   -0.9430    4.1650 hc        1 MOL      0.030107
     34 H14         8.8360   -2.7620    4.9560 hc        1 MOL     -0.096388
     35 H15         7.4530   -3.7610    5.3570 hc        1 MOL     -0.096388
     36 H16         6.5490   -2.0860    6.7040 hx        1 MOL      0.076969
     37 H17         8.0780   -1.0920    6.4350 hx        1 MOL      0.076969
     38 H18         8.3430   -3.8080    7.5710 hn        1 MOL      0.298346
     39 H19         9.2600   -2.4060    7.6900 hn        1 MOL      0.298346
     40 H20         7.9990   -2.5890    8.6180 hn        1 MOL      0.298346
     41 N4          5.6320   -3.3580   -0.2330 n         1 MOL     -0.114252
     42 C13         5.8610   -4.0090   -1.5330 c3        1 MOL      0.011829
     43 C14         5.3580   -3.0360   -2.5900 c         1 MOL      0.484176
     44 O6          5.6110   -3.2710   -3.8010 o         1 MOL     -0.601104
     45 C15         5.3780   -5.4120   -1.5850 c3        1 MOL     -0.117439
     46 C16         3.8520   -5.6000   -1.4140 c         1 MOL      0.607419
     47 O7          3.3780   -6.7260   -1.6520 o         1 MOL     -0.675942
     48 O8          3.1120   -4.6570   -1.2510 o         1 MOL     -0.675942
     49 H21         4.8380   -3.6320    0.3200 hn        1 MOL      0.056132
     50 H22         6.9320   -4.0070   -1.7220 h1        1 MOL      0.091853
     51 H23         5.9050   -5.9850   -0.8090 hc        1 MOL      0.048365
     52 H24         5.7100   -5.8630   -2.5170 hc        1 MOL      0.048365
     53 N5          4.7350   -1.8850   -2.2500 n         1 MOL     -0.014317
     54 C17         4.4780   -0.6530   -3.0500 c3        1 MOL      0.135580
     55 C18         5.7270    0.2800   -3.1620 c         1 MOL      0.625745
     56 O9          6.8650   -0.2300   -3.0600 o         1 MOL     -0.502144
     57 H25         4.4220   -1.8590   -1.2870 hn        1 MOL      0.067479
     58 H26         3.6530   -0.1220   -2.5840 h1        1 MOL     -0.034220
     59 H27         4.1220   -0.9470   -4.0380 h1        1 MOL     -0.034220
     60 N6          5.5830    1.5940   -3.3790 n         1 MOL     -0.678259
     61 C19         4.4280    2.4990   -3.5450 c3        1 MOL      0.347903
     62 C20         4.4340    3.6780   -2.5030 c         1 MOL      0.376768
     63 O10         5.4610    4.1290   -2.0930 o         1 MOL     -0.453711
     64 C21         4.2800    2.8250   -5.0440 c3        1 MOL     -0.158213
     65 C22         5.0830    4.0170   -5.4330 c         1 MOL      0.625807
     66 N7          4.4360    5.1700   -5.5300 n         1 MOL     -0.799548
     67 O11         6.2940    3.9370   -5.4860 o         1 MOL     -0.523422
     68 H28         6.4000    2.1660   -3.2660 hn        1 MOL      0.344271
     69 H29         3.5870    1.8550   -3.3030 h1        1 MOL     -0.011668
     70 H30         3.2760    3.0640   -5.3780 hc        1 MOL      0.033588
     71 H31         4.5330    1.9620   -5.6490 hc        1 MOL      0.033588
     72 H32         3.4350    5.2610   -5.6510 hn        1 MOL      0.374743
     73 H33         5.0500    5.9690   -5.4650 hn        1 MOL      0.374743
     74 N8          3.3110    4.1600   -2.0140 n         1 MOL     -0.346304
     75 C23         1.9430    4.0470   -2.4970 c3        1 MOL     -0.184459
     76 C24         0.9650    4.7350   -1.5030 c         1 MOL      0.724009
     77 O12         1.4410    5.6470   -0.8320 o         1 MOL     -0.527139
     78 H34         3.4750    4.7190   -1.1780 hn        1 MOL      0.285506
     79 H35         1.7000    2.9790   -2.5110 h1        1 MOL      0.056196
     80 H36         1.9030    4.4900   -3.5010 h1        1 MOL      0.056196
     81 N9         -0.2930    4.3370   -1.4570 n         1 MOL     -0.547308
     82 C25        -1.2750    4.5700   -0.4050 c3        1 MOL     -0.000958
     83 C26        -2.3480    3.4340   -0.2450 c         1 MOL      0.646837
     84 O13        -2.6120    2.6090   -1.1180 o         1 MOL     -0.532457
     85 C27        -1.9670    5.9240   -0.7540 c3        1 MOL     -0.123469
     86 C28        -2.8530    6.4980    0.2830 ca        1 MOL      0.095805
     87 C29        -4.1950    6.6790    0.0890 ca        1 MOL     -0.160816
     88 C30        -2.1280    7.1820    1.3470 ca        1 MOL     -0.160816
     89 C31        -4.9340    7.5290    0.9270 ca        1 MOL     -0.253968
     90 C32        -2.9310    7.8900    2.2360 ca        1 MOL     -0.253968
     91 C33        -4.3340    8.1590    1.9780 ca        1 MOL      0.330918
     92 O14        -5.0170    9.0350    2.7320 oh        1 MOL     -0.479051
     93 H37        -0.6540    3.7990   -2.2360 hn        1 MOL      0.280605
     94 H38        -0.8290    4.7360    0.5760 h1        1 MOL      0.084562
     95 H39        -2.4900    5.9710   -1.7060 hc        1 MOL      0.072968
     96 H40        -1.1410    6.6180   -0.9270 hc        1 MOL      0.072968
     97 H41        -4.6480    6.1800   -0.7590 ha        1 MOL      0.139835
     98 H42        -1.0560    7.0560    1.3990 ha        1 MOL      0.139835
     99 H43        -5.9680    7.7830    0.7330 ha        1 MOL      0.139891
    100 H44        -2.4720    8.3750    3.0920 ha        1 MOL      0.139891
    101 H45        -4.5310    9.2730    3.5190 ho        1 MOL      0.363401
    102 N10        -2.9910    3.4060    0.8730 n         1 MOL     -0.526395
    103 C34        -4.0870    2.4820    1.1900 c3        1 MOL     -0.091960
    104 C35        -5.2920    2.6360    0.2000 c         1 MOL      0.428562
    105 O15        -5.6070    3.7190   -0.3950 o         1 MOL     -0.478849
    106 C36        -4.5580    2.8730    2.6210 c3        1 MOL      0.179058
    107 C37        -3.6020    2.2870    3.6570 c3        1 MOL      0.024607
    108 C38        -4.7870    4.3470    2.9550 c3        1 MOL      0.103041
    109 C39        -4.0850    2.1430    5.1050 c3        1 MOL     -0.214523
    110 H46        -2.8430    4.1020    1.5870 hn        1 MOL      0.286442
    111 H47        -3.7470    1.4530    1.0940 h1        1 MOL      0.106406
    112 H48        -5.5120    2.3800    2.7600 hc        1 MOL     -0.028616
    113 H49        -2.6190    2.7810    3.6170 hc        1 MOL     -0.001955
    114 H50        -3.4710    1.2480    3.3720 hc        1 MOL     -0.001955
    115 H51        -5.4970    4.7900    2.2640 hc        1 MOL     -0.022772
    116 H52        -5.3000    4.5010    3.9020 hc        1 MOL     -0.022772
    117 H53        -3.8810    4.9520    2.9850 hc        1 MOL     -0.022772
    118 H54        -3.4410    1.3750    5.5150 hc        1 MOL      0.054257
    119 H55        -4.1170    3.1030    5.6140 hc        1 MOL      0.054257
    120 H56        -5.0860    1.7210    5.2430 hc        1 MOL      0.054257
    121 N11        -6.0890    1.5740    0.0070 n         1 MOL     -0.266303
    122 C40        -7.2160    1.4260   -0.8680 c3        1 MOL      0.060567
    123 C41        -7.1830    0.0420   -1.5390 c         1 MOL      0.608366
    124 O16        -6.4700   -0.7870   -1.0740 o         1 MOL     -0.546970
    125 C42        -8.5550    1.6450   -0.1410 c3        1 MOL      0.081185
    126 O17        -8.8870    0.7150    0.8950 oh        1 MOL     -0.602082
    127 H57        -5.8880    0.7060    0.4780 hn        1 MOL      0.238907
    128 H58        -7.1480    2.1950   -1.6340 h1        1 MOL      0.040234
    129 H59        -9.3260    1.7130   -0.9070 h1        1 MOL      0.031712
    130 H60        -8.4710    2.6170    0.3310 h1        1 MOL      0.031712
    131 H61        -9.7700    1.0100    1.1270 ho        1 MOL      0.415125
    132 N12        -7.8780   -0.2060   -2.6490 n         1 MOL     -0.559669
    133 C43        -7.9120   -1.5300   -3.3410 c3        1 MOL      0.155721
    134 C44        -8.1210   -2.7630   -2.3420 c         1 MOL      0.414402
    135 O18        -7.6400   -3.8820   -2.5820 o         1 MOL     -0.419844
    136 C45        -6.6320   -1.7030   -4.2240 c3        1 MOL     -0.362816
    137 H62        -8.3540    0.5450   -3.1240 hn        1 MOL      0.316820
    138 H63        -8.7830   -1.5680   -3.9990 h1        1 MOL      0.065147
    139 H64        -5.8040   -1.3060   -3.6400 hc        1 MOL      0.119056
    140 H65        -6.3580   -2.7310   -4.4410 hc        1 MOL      0.119056
    141 H66        -6.7350   -1.1380   -5.1610 hc        1 MOL      0.119056
    142 N13        -8.8750   -2.5210   -1.2720 n         1 MOL     -0.501758
    143 C46        -9.2440   -3.3700   -0.1840 c3        1 MOL      0.389632
    144 C47        -7.9720   -4.0630    0.4790 c         1 MOL      0.210580
    145 O19        -8.1000   -5.2490    0.8130 o         1 MOL     -0.404730
    146 C48       -10.2420   -4.3750   -0.5410 c3        1 MOL     -0.162332
    147 H67        -9.3760   -1.6530   -1.3490 hn        1 MOL      0.255224
    148 H68        -9.7480   -2.7200    0.5440 h1        1 MOL     -0.018139
    149 H69        -9.8800   -4.8810   -1.4280 hc        1 MOL      0.037628
    150 H70       -10.4110   -5.0110    0.3300 hc        1 MOL      0.037628
    151 H71       -11.1810   -3.8800   -0.8300 hc        1 MOL      0.037628
    152 N14        -6.7730   -3.4400    0.4850 n         1 MOL     -0.300720
    153 C49        -5.5820   -3.9910    1.0860 c3        1 MOL     -0.339384
    154 C50        -5.6640   -4.4410    2.5580 c         1 MOL      0.529520
    155 O20        -5.1930   -5.5140    2.8070 o         1 MOL     -0.492290
    156 C51        -4.3320   -3.1690    0.7360 c3        1 MOL      0.305013
    157 C52        -2.9970   -3.7940    1.2330 c3        1 MOL      0.035900
    158 C53        -1.8310   -3.5400    0.2350 c         1 MOL      0.507282
    159 O21        -1.1130   -2.5660    0.3720 o         1 MOL     -0.669217
    160 O22        -1.7200   -4.2700   -0.7210 o         1 MOL     -0.669217
    161 H72        -6.6460   -2.5930   -0.0590 hn        1 MOL      0.287331
    162 H73        -5.4680   -4.8620    0.4350 h1        1 MOL      0.214640
    163 H74        -4.5010   -2.1880    1.1770 hc        1 MOL     -0.045727
    164 H75        -4.2430   -3.0990   -0.3500 hc        1 MOL     -0.045727
    165 H76        -3.1790   -4.8510    1.4200 hc        1 MOL     -0.039559
    166 H77        -2.7510   -3.2910    2.1630 hc        1 MOL     -0.039559
    167 N15        -6.1210   -3.5630    3.5160 n         1 MOL     -0.215739
    168 C54        -6.3990   -3.9780    4.8740 c3        1 MOL     -0.361738
    169 H78        -6.7350   -5.0140    4.8750 h1        1 MOL      0.134426
    170 H79        -5.4930   -3.8900    5.4740 h1        1 MOL      0.134426
    171 H80        -7.1780   -3.3420    5.2960 h1        1 MOL      0.134426
    172 H81        -6.3670   -2.5970    3.3310 hn        1 MOL      0.234695
    173 Ca1         0.8470   -3.4150   -1.2510 Ca        1 MOL      1.797234
    174 O23        -0.0630   -5.1150   -3.1540 oh        1 MOL     -0.851939
    175 H82        -0.7240   -5.7930   -3.0460 ho        1 MOL      0.414393
    176 H83         0.0230   -5.0100   -4.1070 ho        1 MOL      0.414393
    177 O24         0.9050   -5.9520   -0.1920 oh        1 MOL     -0.851939
    178 H84         1.7990   -6.2100   -0.4400 ho        1 MOL      0.414393
    179 H85         0.5860   -6.6920    0.3300 ho        1 MOL      0.414393
    180 O25         2.1160   -2.6530   -3.6280 oh        1 MOL     -0.851939
    181 H86         2.9750   -2.9390   -3.9300 ho        1 MOL      0.414393
    182 H87         1.7050   -2.2860   -4.4090 ho        1 MOL      0.414393
    183 O26         1.8540   -1.0130   -0.7920 oh        1 MOL     -0.851939
    184 H88         2.7050   -0.7650   -0.4410 ho        1 MOL      0.414393
    185 H89         1.3000   -0.2380   -0.6420 ho        1 MOL      0.414393
    186 O27        -0.7230   -1.5110   -2.2380 oh        1 MOL     -0.851939
    187 H90        -0.7060   -1.0880   -3.0990 ho        1 MOL      0.414393
    188 H91        -1.5520   -1.2390   -1.8540 ho        1 MOL      0.414393
    189 O28         2.3830   -3.1250    1.1490 oh        1 MOL     -0.851939
    190 H92         2.7740   -2.5410    1.7990 ho        1 MOL      0.414393
    191 H93         2.8270   -3.9630    1.2750 ho        1 MOL      0.414393
@<TRIPOS>BOND
     1    1    2 1   
     2    1    4 1   
     3    1    5 1   
     4    1    6 1   
     5    2    3 2   
     6    2    7 1   
     7    7    8 1   
     8    7   15 1   
     9    8    9 1   
    10    8   11 1   
    11    8   16 1   
    12    9   10 2   
    13    9   19 1   
    14   11   12 1   
    15   11   17 1   
    16   11   18 1   
    17   12   13 1   
    18   12   14 1   
    19   19   20 1   
    20   19   28 1   
    21   20   21 1   
    22   20   23 1   
    23   20   29 1   
    24   21   22 2   
    25   21   41 1   
    26   23   24 1   
    27   23   30 1   
    28   23   31 1   
    29   24   25 1   
    30   24   32 1   
    31   24   33 1   
    32   25   26 1   
    33   25   34 1   
    34   25   35 1   
    35   26   27 1   
    36   26   36 1   
    37   26   37 1   
    38   27   38 1   
    39   27   39 1   
    40   27   40 1   
    41   41   42 1   
    42   41   49 1   
    43   42   43 1   
    44   42   45 1   
    45   42   50 1   
    46   43   44 2   
    47   43   53 1   
    48   45   46 1   
    49   45   51 1   
    50   45   52 1   
    51   46   47 1   
    52   46   48 1   
    53   53   54 1   
    54   53   57 1   
    55   54   55 1   
    56   54   58 1   
    57   54   59 1   
    58   55   56 2   
    59   55   60 1   
    60   60   61 1   
    61   60   68 1   
    62   61   62 1   
    63   61   64 1   
    64   61   69 1   
    65   62   63 2   
    66   62   74 1   
    67   64   65 1   
    68   64   70 1   
    69   64   71 1   
    70   65   66 1   
    71   65   67 2   
    72   66   72 1   
    73   66   73 1   
    74   74   75 1   
    75   74   78 1   
    76   75   76 1   
    77   75   79 1   
    78   75   80 1   
    79   76   77 2   
    80   76   81 1   
    81   81   82 1   
    82   81   93 1   
    83   82   83 1   
    84   82   85 1   
    85   82   94 1   
    86   83   84 2   
    87   83  102 1   
    88   85   86 1   
    89   85   95 1   
    90   85   96 1   
    91   86   87 ar  
    92   86   88 ar  
    93   87   89 ar  
    94   87   97 1   
    95   88   90 ar  
    96   88   98 1   
    97   89   91 ar  
    98   89   99 1   
    99   90   91 ar  
   100   90  100 1   
   101   91   92 1   
   102   92  101 1   
   103  102  103 1   
   104  102  110 1   
   105  103  104 1   
   106  103  106 1   
   107  103  111 1   
   108  104  105 2   
   109  104  121 1   
   110  106  107 1   
   111  106  108 1   
   112  106  112 1   
   113  107  109 1   
   114  107  113 1   
   115  107  114 1   
   116  108  115 1   
   117  108  116 1   
   118  108  117 1   
   119  109  118 1   
   120  109  119 1   
   121  109  120 1   
   122  121  122 1   
   123  121  127 1   
   124  122  123 1   
   125  122  125 1   
   126  122  128 1   
   127  123  124 2   
   128  123  132 1   
   129  125  126 1   
   130  125  129 1   
   131  125  130 1   
   132  126  131 1   
   133  132  133 1   
   134  132  137 1   
   135  133  134 1   
   136  133  136 1   
   137  133  138 1   
   138  134  135 2   
   139  134  142 1   
   140  136  139 1   
   141  136  140 1   
   142  136  141 1   
   143  142  143 1   
   144  142  147 1   
   145  143  144 1   
   146  143  146 1   
   147  143  148 1   
   148  144  145 2   
   149  144  152 1   
   150  146  149 1   
   151  146  150 1   
   152  146  151 1   
   153  152  153 1   
   154  152  161 1   
   155  153  154 1   
   156  153  156 1   
   157  153  162 1   
   158  154  155 2   
   159  154  167 1   
   160  156  157 1   
   161  156  163 1   
   162  156  164 1   
   163  157  158 1   
   164  157  165 1   
   165  157  166 1   
   166  158  159 1   
   167  158  160 1   
   168  167  168 1   
   169  167  172 1   
   170  168  169 1   
   171  168  170 1   
   172  168  171 1   
   173  174  175 1   
   174  174  176 1   
   175  177  178 1   
   176  177  179 1   
   177  180  181 1   
   178  180  182 1   
   179  183  184 1   
   180  183  185 1   
   181  186  187 1   
   182  186  188 1   
   183  189  190 1   
   184  189  191 1   
@<TRIPOS>SUBSTRUCTURE
     1 MOL         1 TEMP              0 ****  ****    0 ROOT
