@<TRIPOS>MOLECULE
MOL
  185   180     1     0     0
SMALL
resp


@<TRIPOS>ATOM
      1 C1          5.4570   -0.9780   -3.9230 c3        1 MOL     -0.405530
      2 C2          6.2430   -1.1510   -2.6310 c         1 MOL      0.417313
      3 O1          5.6450   -1.1490   -1.5940 o         1 MOL     -0.307468
      4 H1          4.7610   -1.8080   -4.0380 hc        1 MOL      0.117606
      5 H2          4.9000   -0.0410   -3.8880 hc        1 MOL      0.117606
      6 H3          6.1450   -0.9620   -4.7680 hc        1 MOL      0.117606
      7 N1          7.6070   -1.2860   -2.6110 n         1 MOL     -0.413492
      8 C3          8.4730   -1.3860   -1.4000 c3        1 MOL      0.103757
      9 C4          7.9780   -0.3990   -0.3310 c         1 MOL      0.320420
     10 O2          7.6570   -0.7060    0.7870 o         1 MOL     -0.415992
     11 C5          8.5210   -2.8280   -1.0100 c3        1 MOL     -0.042426
     12 C6          9.6700   -3.1360   -0.1130 c         1 MOL      0.621285
     13 O3         10.5150   -2.1930    0.1150 o         1 MOL     -0.629073
     14 O4         10.0250   -4.3220    0.2190 o         1 MOL     -0.629073
     15 H4          8.0870   -1.1950   -3.4930 hn        1 MOL      0.274163
     16 H5          9.4900   -1.2000   -1.7420 h1        1 MOL      0.041051
     17 H6          8.5000   -3.5000   -1.8640 hc        1 MOL      0.006790
     18 H7          7.5960   -2.9740   -0.4590 hc        1 MOL      0.006790
     19 N2          7.9030    0.8920   -0.6810 n         1 MOL     -0.345852
     20 C7          7.7010    1.9680    0.3590 c3        1 MOL      0.115367
     21 C8          6.2610    2.1810    0.8340 c         1 MOL      0.425203
     22 O5          6.0500    3.0550    1.6790 o         1 MOL     -0.526882
     23 C9          8.3000    3.3430   -0.0780 c3        1 MOL     -0.100775
     24 C10         9.7930    3.4340   -0.1150 c3        1 MOL      0.113125
     25 C11        10.3760    4.6740   -0.7940 c3        1 MOL     -0.097414
     26 C12        10.1050    6.0280   -0.1120 c3        1 MOL      0.117766
     27 N3         10.7300    7.1350   -0.8470 n4        1 MOL     -0.282486
     28 H8          7.9770    1.1180   -1.6580 hn        1 MOL      0.210469
     29 H9          8.3350    1.6300    1.1820 h1        1 MOL      0.113813
     30 H10         8.1700    4.1770    0.6060 hc        1 MOL      0.018429
     31 H11         7.8640    3.5740   -1.0470 hc        1 MOL      0.018429
     32 H12        10.1530    2.5060   -0.5740 hc        1 MOL     -0.000399
     33 H13        10.1600    3.3220    0.9080 hc        1 MOL     -0.000399
     34 H14         9.9950    4.5980   -1.8040 hc        1 MOL      0.037606
     35 H15        11.4510    4.5240   -0.8190 hc        1 MOL      0.037606
     36 H16        10.5310    6.0580    0.8950 hx        1 MOL      0.059755
     37 H17         9.0350    6.2320    0.0090 hx        1 MOL      0.059755
     38 H18        10.1450    7.9660   -0.8100 hn        1 MOL      0.251605
     39 H19        11.5880    7.4040   -0.3910 hn        1 MOL      0.251605
     40 H20        10.9110    6.8320   -1.7950 hn        1 MOL      0.251605
     41 N4          5.2890    1.4760    0.2430 n         1 MOL     -0.318113
     42 C13         3.8700    1.7720    0.3110 c3        1 MOL     -0.212168
     43 C14         3.4830    1.9600    1.7660 c         1 MOL      0.587377
     44 O6          3.8290    1.1580    2.6230 o         1 MOL     -0.463622
     45 C15         3.1830    0.6100   -0.3820 c3        1 MOL      0.256405
     46 C16         1.6980    0.9320   -0.5920 c         1 MOL      0.222933
     47 O7          1.2790    1.2920   -1.7010 o         1 MOL     -0.619946
     48 O8          0.8800    0.9490    0.3650 o         1 MOL     -0.619946
     49 H21         5.6310    0.6360   -0.2020 hn        1 MOL      0.180091
     50 H22         3.6550    2.6580   -0.2820 h1        1 MOL      0.130087
     51 H23         3.3210   -0.3640    0.0990 hc        1 MOL      0.033783
     52 H24         3.6820    0.5750   -1.3480 hc        1 MOL      0.033783
     53 N5          2.6360    2.9780    2.0350 n         1 MOL     -0.286776
     54 C17         2.1330    3.4240    3.3870 c3        1 MOL     -0.273904
     55 C18         1.1750    2.4630    4.1450 c         1 MOL      0.566463
     56 O9          1.1660    2.4950    5.3540 o         1 MOL     -0.527051
     57 H25         2.3820    3.5730    1.2530 hn        1 MOL      0.188415
     58 H26         1.6140    4.3670    3.2090 h1        1 MOL      0.143163
     59 H27         3.0210    3.6230    3.9830 h1        1 MOL      0.143163
     60 N6          0.4770    1.6400    3.3810 n         1 MOL     -0.335686
     61 C19        -0.4120    0.6230    3.8480 c3        1 MOL      0.107265
     62 C20        -0.0750   -0.8440    3.3490 c         1 MOL      0.198680
     63 O10        -0.9760   -1.7270    3.2540 o         1 MOL     -0.319872
     64 C21        -1.9570    1.0270    3.7080 c3        1 MOL     -0.179264
     65 C22        -2.4110    1.4940    2.3210 c         1 MOL      0.628377
     66 N7         -2.7200    2.7520    2.1150 n         1 MOL     -0.804817
     67 O11        -2.5170    0.6990    1.3560 o         1 MOL     -0.622029
     68 H28         0.6550    1.6660    2.3870 hn        1 MOL      0.177253
     69 H29        -0.2590    0.6490    4.9290 h1        1 MOL      0.087622
     70 H30        -2.2210    1.7790    4.4610 hc        1 MOL      0.082149
     71 H31        -2.5660    0.1650    3.9970 hc        1 MOL      0.082149
     72 H32        -2.8170    3.4840    2.7980 hn        1 MOL      0.374231
     73 H33        -2.9000    2.9580    1.1420 hn        1 MOL      0.374231
     74 N8          1.2430   -1.1060    3.0210 n         1 MOL      0.002942
     75 C23         1.6800   -2.4450    2.8860 c3        1 MOL     -0.316023
     76 C24         1.2630   -3.1280    1.5920 c         1 MOL      0.486682
     77 O12         1.3520   -4.3800    1.4980 o         1 MOL     -0.534141
     78 H34         1.9840   -0.4300    3.1680 hn        1 MOL      0.178383
     79 H35         1.1330   -2.9380    3.6890 h1        1 MOL      0.140813
     80 H36         2.7530   -2.5710    3.0490 h1        1 MOL      0.140813
     81 N9          0.7400   -2.3960    0.6240 n         1 MOL     -0.022628
     82 C25         0.1480   -3.0290   -0.5860 c3        1 MOL      0.177566
     83 C26        -1.1370   -2.3380   -0.8900 c         1 MOL      0.028955
     84 O13        -1.1830   -1.1100   -0.6770 o         1 MOL     -0.307766
     85 C27         1.2420   -2.9660   -1.6900 c3        1 MOL     -0.025096
     86 C28         2.4330   -3.8760   -1.4220 ca        1 MOL     -0.027341
     87 C29         2.2220   -5.2400   -1.6940 ca        1 MOL     -0.120677
     88 C30         3.7040   -3.4190   -1.0520 ca        1 MOL     -0.120677
     89 C31         3.1710   -6.2050   -1.4240 ca        1 MOL     -0.265865
     90 C32         4.6610   -4.3570   -0.7360 ca        1 MOL     -0.265865
     91 C33         4.4040   -5.7480   -0.9490 ca        1 MOL      0.373981
     92 O14         5.4030   -6.6730   -0.7350 oh        1 MOL     -0.541279
     93 H37         0.6790   -1.3820    0.6810 hn        1 MOL      0.008123
     94 H38        -0.0420   -4.0540   -0.2730 h1        1 MOL      0.031488
     95 H39         1.6550   -1.9530   -1.7140 hc        1 MOL      0.020125
     96 H40         0.8520   -3.0680   -2.7050 hc        1 MOL      0.020125
     97 H41         1.2080   -5.5040   -1.9850 ha        1 MOL      0.088181
     98 H42         3.8210   -2.3680   -0.8410 ha        1 MOL      0.088181
     99 H43         2.9670   -7.2650   -1.4400 ha        1 MOL      0.173192
    100 H44         5.5210   -4.0710   -0.1460 ha        1 MOL      0.173192
    101 H45         6.2160   -6.2360   -0.4680 ho        1 MOL      0.396652
    102 N10        -2.2230   -2.9700   -1.4230 n         1 MOL     -0.039198
    103 C34        -3.5640   -2.5000   -1.6670 c3        1 MOL      0.028787
    104 C35        -4.2550   -2.1290   -0.3090 c         1 MOL      0.019507
    105 O15        -5.0470   -1.1750   -0.2630 o         1 MOL     -0.291967
    106 C36        -4.3940   -3.6000   -2.4230 c3        1 MOL      0.087508
    107 C37        -3.8710   -3.9320   -3.8810 c3        1 MOL     -0.012360
    108 C38        -5.8320   -3.0970   -2.5580 c3        1 MOL     -0.393685
    109 C39        -3.6760   -2.6920   -4.7350 c3        1 MOL     -0.151462
    110 H46        -2.1050   -3.9440   -1.6580 hn        1 MOL      0.172632
    111 H47        -3.5750   -1.6100   -2.2880 h1        1 MOL      0.057071
    112 H48        -4.4170   -4.5300   -1.8500 hc        1 MOL     -0.003804
    113 H49        -4.4590   -4.6800   -4.4160 hc        1 MOL      0.016068
    114 H50        -2.8670   -4.3400   -3.7880 hc        1 MOL      0.016068
    115 H51        -6.4080   -3.8890   -3.0490 hc        1 MOL      0.126710
    116 H52        -6.3130   -3.0550   -1.5810 hc        1 MOL      0.126710
    117 H53        -5.9570   -2.1200   -3.0370 hc        1 MOL      0.126710
    118 H54        -4.5810   -2.1000   -4.8550 hc        1 MOL      0.047093
    119 H55        -2.9120   -2.1730   -4.1520 hc        1 MOL      0.047093
    120 H56        -3.2820   -3.0020   -5.7110 hc        1 MOL      0.047093
    121 N11        -3.8950   -2.8840    0.7110 n         1 MOL      0.086787
    122 C40        -4.2370   -2.5220    2.1270 c3        1 MOL     -0.251819
    123 C41        -5.7250   -2.4410    2.4310 c         1 MOL      0.360430
    124 O16        -6.2590   -1.8340    3.3770 o         1 MOL     -0.460835
    125 C42        -3.5290   -3.5140    3.0860 c3        1 MOL      0.219364
    126 O17        -2.2630   -3.8270    2.6100 oh        1 MOL     -0.552623
    127 H57        -3.2470   -3.6410    0.5360 hn        1 MOL      0.164645
    128 H58        -3.7920   -1.5880    2.4730 h1        1 MOL      0.157563
    129 H59        -4.1740   -4.3790    2.9220 h1        1 MOL      0.028907
    130 H60        -3.4290   -3.2670    4.1380 h1        1 MOL      0.028907
    131 H61        -1.7210   -3.0510    2.7470 ho        1 MOL      0.291521
    132 N12        -6.4910   -3.0310    1.4940 n         1 MOL     -0.233901
    133 C43        -7.9440   -2.8320    1.2690 c3        1 MOL      0.229362
    134 C44        -8.2580   -1.2750    1.2500 c         1 MOL      0.423769
    135 O18        -9.3250   -0.8660    1.7790 o         1 MOL     -0.531463
    136 C45        -8.7970   -3.6470    2.2990 c3        1 MOL     -0.383435
    137 H62        -6.0160   -3.6390    0.8400 hn        1 MOL      0.181056
    138 H63        -8.0780   -3.2630    0.2810 h1        1 MOL      0.032712
    139 H64        -9.6680   -4.0140    1.7500 hc        1 MOL      0.107587
    140 H65        -8.2490   -4.5310    2.6220 hc        1 MOL      0.107587
    141 H66        -9.0000   -3.0140    3.1610 hc        1 MOL      0.107587
    142 N13        -7.4700   -0.3750    0.6630 n         1 MOL     -0.436164
    143 C46        -7.5890    1.0790    0.8970 c3        1 MOL      0.516647
    144 C47        -7.3550    1.9180   -0.3710 c         1 MOL      0.288128
    145 O19        -6.8980    1.3620   -1.4020 o         1 MOL     -0.450731
    146 C48        -6.5340    1.4110    1.9840 c3        1 MOL     -0.369497
    147 H67        -6.6010   -0.6510    0.2230 hn        1 MOL      0.072562
    148 H68        -8.6170    1.2620    1.2020 h1        1 MOL     -0.024273
    149 H69        -6.7720    0.7930    2.8460 hc        1 MOL      0.098442
    150 H70        -5.4890    1.3160    1.6690 hc        1 MOL      0.098442
    151 H71        -6.5960    2.4690    2.2000 hc        1 MOL      0.098442
    152 N14        -7.5800    3.2290   -0.3030 n         1 MOL     -0.428323
    153 C49        -7.2950    4.2490   -1.3520 c3        1 MOL     -0.038806
    154 C50        -7.9300    3.9160   -2.7630 c         1 MOL      0.397690
    155 O20        -7.2960    4.2310   -3.8090 o         1 MOL     -0.480567
    156 C51        -5.7660    4.3870   -1.4520 c3        1 MOL     -0.109298
    157 C52        -4.8500    4.4340   -0.1880 c3        1 MOL      0.146938
    158 C53        -3.4240    4.5940   -0.7520 c         1 MOL      0.553512
    159 O21        -2.5720    3.6800   -0.6090 o         1 MOL     -0.661998
    160 O22        -3.0000    5.7550   -1.0050 o         1 MOL     -0.661998
    161 H72        -8.0230    3.5840    0.5320 hn        1 MOL      0.285396
    162 H73        -7.6580    5.2400   -1.0870 h1        1 MOL      0.098869
    163 H74        -5.5070    5.2450   -2.0700 hc        1 MOL      0.065676
    164 H75        -5.4030    3.5140   -1.9980 hc        1 MOL      0.065676
    165 H76        -5.0300    3.5190    0.3850 hc        1 MOL     -0.044774
    166 H77        -5.0410    5.2450    0.5220 hc        1 MOL     -0.044774
    167 N15        -9.1170    3.3020   -2.8030 n         1 MOL     -0.276475
    168 C54        -9.6940    2.6850   -3.9670 c3        1 MOL     -0.058227
    169 H78       -10.5860    3.2360   -4.2650 h1        1 MOL      0.066642
    170 H79        -8.9710    2.6980   -4.7820 h1        1 MOL      0.066642
    171 H80        -9.9640    1.6550   -3.7360 h1        1 MOL      0.066642
    172 H81        -9.6800    3.1580   -1.9690 hn        1 MOL      0.248334
    173 Ca1        -1.1580    1.5110   -0.8900 Ca        1 MOL      1.725083
    174 O23         0.1400    3.6360    0.3300 oh        1 MOL     -0.815605
    175 H82        -0.5410    4.3000    0.3020 ho        1 MOL      0.402819
    176 H83         0.9500    4.1290    0.4730 ho        1 MOL      0.402819
    177 O24        -3.8900    1.0030   -1.3590 oh        1 MOL     -0.815605
    178 H84        -4.5890    1.3820   -1.8990 ho        1 MOL      0.402819
    179 H85        -4.3250    0.2950   -0.8890 ho        1 MOL      0.402819
    180 O25        -1.5790    0.1680   -3.3480 oh        1 MOL     -0.815605
    181 H86        -1.3800   -0.6640   -3.7850 ho        1 MOL      0.402819
    182 H87        -1.4560    0.8260   -4.0260 ho        1 MOL      0.402819
    183 O26        -1.1230    3.0270   -3.2080 oh        1 MOL     -0.815605
    184 H88        -0.3690    3.5090   -3.5540 ho        1 MOL      0.402819
    185 H89        -1.7320    3.7100   -2.9220 ho        1 MOL      0.402819
@<TRIPOS>BOND
     1    1    2 1   
     2    1    4 1   
     3    1    5 1   
     4    1    6 1   
     5    2    3 2   
     6    2    7 1   
     7    7    8 1   
     8    7   15 1   
     9    8    9 1   
    10    8   11 1   
    11    8   16 1   
    12    9   10 2   
    13    9   19 1   
    14   11   12 1   
    15   11   17 1   
    16   11   18 1   
    17   12   13 1   
    18   12   14 1   
    19   19   20 1   
    20   19   28 1   
    21   20   21 1   
    22   20   23 1   
    23   20   29 1   
    24   21   22 2   
    25   21   41 1   
    26   23   24 1   
    27   23   30 1   
    28   23   31 1   
    29   24   25 1   
    30   24   32 1   
    31   24   33 1   
    32   25   26 1   
    33   25   34 1   
    34   25   35 1   
    35   26   27 1   
    36   26   36 1   
    37   26   37 1   
    38   27   38 1   
    39   27   39 1   
    40   27   40 1   
    41   41   42 1   
    42   41   49 1   
    43   42   43 1   
    44   42   45 1   
    45   42   50 1   
    46   43   44 2   
    47   43   53 1   
    48   45   46 1   
    49   45   51 1   
    50   45   52 1   
    51   46   47 1   
    52   46   48 1   
    53   53   54 1   
    54   53   57 1   
    55   54   55 1   
    56   54   58 1   
    57   54   59 1   
    58   55   56 2   
    59   55   60 1   
    60   60   61 1   
    61   60   68 1   
    62   61   62 1   
    63   61   64 1   
    64   61   69 1   
    65   62   63 2   
    66   62   74 1   
    67   64   65 1   
    68   64   70 1   
    69   64   71 1   
    70   65   66 1   
    71   65   67 2   
    72   66   72 1   
    73   66   73 1   
    74   74   75 1   
    75   74   78 1   
    76   75   76 1   
    77   75   79 1   
    78   75   80 1   
    79   76   77 2   
    80   76   81 1   
    81   81   82 1   
    82   81   93 1   
    83   82   83 1   
    84   82   85 1   
    85   82   94 1   
    86   83   84 2   
    87   83  102 1   
    88   85   86 1   
    89   85   95 1   
    90   85   96 1   
    91   86   87 ar  
    92   86   88 ar  
    93   87   89 ar  
    94   87   97 1   
    95   88   90 ar  
    96   88   98 1   
    97   89   91 ar  
    98   89   99 1   
    99   90   91 ar  
   100   90  100 1   
   101   91   92 1   
   102   92  101 1   
   103  102  103 1   
   104  102  110 1   
   105  103  104 1   
   106  103  106 1   
   107  103  111 1   
   108  104  105 2   
   109  104  121 1   
   110  106  107 1   
   111  106  108 1   
   112  106  112 1   
   113  107  109 1   
   114  107  113 1   
   115  107  114 1   
   116  108  115 1   
   117  108  116 1   
   118  108  117 1   
   119  109  118 1   
   120  109  119 1   
   121  109  120 1   
   122  121  122 1   
   123  121  127 1   
   124  122  123 1   
   125  122  125 1   
   126  122  128 1   
   127  123  124 2   
   128  123  132 1   
   129  125  126 1   
   130  125  129 1   
   131  125  130 1   
   132  126  131 1   
   133  132  133 1   
   134  132  137 1   
   135  133  134 1   
   136  133  136 1   
   137  133  138 1   
   138  134  135 2   
   139  134  142 1   
   140  136  139 1   
   141  136  140 1   
   142  136  141 1   
   143  142  143 1   
   144  142  147 1   
   145  143  144 1   
   146  143  146 1   
   147  143  148 1   
   148  144  145 2   
   149  144  152 1   
   150  146  149 1   
   151  146  150 1   
   152  146  151 1   
   153  152  153 1   
   154  152  161 1   
   155  153  154 1   
   156  153  156 1   
   157  153  162 1   
   158  154  155 2   
   159  154  167 1   
   160  156  157 1   
   161  156  163 1   
   162  156  164 1   
   163  157  158 1   
   164  157  165 1   
   165  157  166 1   
   166  158  159 1   
   167  158  160 1   
   168  167  168 1   
   169  167  172 1   
   170  168  169 1   
   171  168  170 1   
   172  168  171 1   
   173  174  175 1   
   174  174  176 1   
   175  177  178 1   
   176  177  179 1   
   177  180  181 1   
   178  180  182 1   
   179  183  184 1   
   180  183  185 1   
@<TRIPOS>SUBSTRUCTURE
     1 MOL         1 TEMP              0 ****  ****    0 ROOT
