@<TRIPOS>MOLECULE
MOL
  179   176     1     0     0
SMALL
resp


@<TRIPOS>ATOM
      1 C1          0.3580   -3.3000    6.2110 c3        1 MOL     -0.465610
      2 C2          0.4090   -3.2640    4.6890 c         1 MOL      0.744811
      3 O1         -0.5010   -2.7900    4.0770 o         1 MOL     -0.571421
      4 H1         -0.0150   -4.2700    6.5380 hc        1 MOL      0.135657
      5 H2          1.3590   -3.1410    6.6130 hc        1 MOL      0.135657
      6 H3         -0.3070   -2.5150    6.5710 hc        1 MOL      0.135657
      7 N1          1.5820   -3.5560    4.0890 n         1 MOL     -0.634241
      8 C3          1.8540   -3.2990    2.6800 c3        1 MOL      0.072268
      9 C4          1.7970   -4.5510    1.7760 c         1 MOL      0.549901
     10 O2          1.9290   -5.6390    2.2900 o         1 MOL     -0.549845
     11 C5          3.2260   -2.6270    2.5050 c3        1 MOL     -0.269381
     12 C6          3.3940   -1.7210    1.2380 c         1 MOL      0.641377
     13 O3          3.8240   -0.5470    1.4380 o         1 MOL     -0.710211
     14 O4          3.1370   -2.1070    0.0650 o         1 MOL     -0.710211
     15 H4          2.3540   -3.7170    4.7260 hn        1 MOL      0.338393
     16 H5          1.1330   -2.5560    2.3420 h1        1 MOL      0.119733
     17 H6          4.0370   -3.3510    2.5290 hc        1 MOL      0.117559
     18 H7          3.4250   -1.9840    3.3630 hc        1 MOL      0.117559
     19 N2          1.6290   -4.3570    0.4730 n         1 MOL     -0.320947
     20 C7          1.7750   -5.4820   -0.4780 c3        1 MOL     -0.008528
     21 C8          2.9870   -5.3670   -1.3880 c         1 MOL      0.513072
     22 O5          3.5590   -6.4080   -1.6600 o         1 MOL     -0.539324
     23 C9          0.4450   -5.6830   -1.2720 c3        1 MOL     -0.069373
     24 C10        -0.8140   -6.0920   -0.4940 c3        1 MOL      0.089246
     25 C11        -1.9690   -6.3050   -1.4490 c3        1 MOL      0.166887
     26 C12        -3.0920   -7.0710   -0.8050 c3        1 MOL     -0.025007
     27 N3         -4.2440   -7.1990   -1.7320 n4        1 MOL     -0.154799
     28 H8          1.4720   -3.4430    0.0720 hn        1 MOL      0.271571
     29 H9          2.0040   -6.3940    0.0700 h1        1 MOL      0.108019
     30 H10         0.6680   -6.4050   -2.0570 hc        1 MOL     -0.000228
     31 H11         0.2930   -4.7660   -1.8420 hc        1 MOL     -0.000228
     32 H12        -1.0720   -5.3190    0.2310 hc        1 MOL     -0.010804
     33 H13        -0.5990   -6.9990    0.0780 hc        1 MOL     -0.010804
     34 H14        -1.7790   -6.9600   -2.2980 hc        1 MOL     -0.023987
     35 H15        -2.3010   -5.3420   -1.8340 hc        1 MOL     -0.023987
     36 H16        -3.4210   -6.5600    0.1050 hx        1 MOL      0.075679
     37 H17        -2.6770   -8.0560   -0.5840 hx        1 MOL      0.075679
     38 H18        -5.0560   -7.6780   -1.3630 hn        1 MOL      0.240921
     39 H19        -4.5420   -6.2790   -2.0490 hn        1 MOL      0.240921
     40 H20        -3.9910   -7.6630   -2.5860 hn        1 MOL      0.240921
     41 N4          3.4760   -4.1650   -1.7590 n         1 MOL     -0.325860
     42 C13         4.6540   -4.0330   -2.6830 c3        1 MOL      0.007210
     43 C14         5.9450   -3.7380   -1.8120 c         1 MOL      0.467126
     44 O6          7.0170   -4.2090   -2.1110 o         1 MOL     -0.544451
     45 C15         4.4080   -2.8670   -3.7110 c3        1 MOL     -0.176833
     46 C16         4.0770   -1.5270   -3.0000 c         1 MOL      0.636833
     47 O7          4.8080   -1.0480   -2.0760 o         1 MOL     -0.722318
     48 O8          2.9690   -0.9690   -3.1730 o         1 MOL     -0.722318
     49 H21         3.0050   -3.3340   -1.4280 hn        1 MOL      0.252804
     50 H22         4.8020   -4.9630   -3.2380 h1        1 MOL      0.106252
     51 H23         3.4960   -3.1180   -4.2500 hc        1 MOL      0.068546
     52 H24         5.1740   -2.8090   -4.4780 hc        1 MOL      0.068546
     53 N5          5.7780   -3.1430   -0.5870 n         1 MOL     -0.051715
     54 C17         6.7440   -2.9130    0.5130 c3        1 MOL     -0.220943
     55 C18         7.1950   -1.4970    0.6590 c         1 MOL      0.614233
     56 O9          7.7310   -1.2080    1.6780 o         1 MOL     -0.558763
     57 H25         4.8340   -2.8680   -0.3970 hn        1 MOL     -0.025769
     58 H26         7.6570   -3.5100    0.4660 h1        1 MOL      0.117430
     59 H27         6.3670   -3.2330    1.4870 h1        1 MOL      0.117430
     60 N6          6.9350   -0.5610   -0.2710 n         1 MOL     -0.234365
     61 C19         7.4050    0.8360   -0.3570 c3        1 MOL      0.049269
     62 C20         6.3750    1.9740   -0.3540 c         1 MOL      0.630930
     63 O10         5.1970    1.7210   -0.5760 o         1 MOL     -0.541531
     64 C21         8.3350    1.0740   -1.6370 c3        1 MOL     -0.307344
     65 C22         9.2430   -0.0570   -1.9330 c         1 MOL      0.720282
     66 N7          9.3000   -0.5790   -3.1260 n         1 MOL     -0.830966
     67 O11         9.8990   -0.5780   -1.0290 o         1 MOL     -0.546171
     68 H28         6.4520   -0.8150   -1.1180 hn        1 MOL      0.198369
     69 H29         7.9760    0.9590    0.5700 h1        1 MOL      0.044289
     70 H30         8.8980    2.0010   -1.5670 hc        1 MOL      0.059362
     71 H31         7.6440    1.1550   -2.4780 hc        1 MOL      0.059362
     72 H32         8.7810   -0.2200   -3.9090 hn        1 MOL      0.379313
     73 H33         9.7790   -1.4520   -3.3070 hn        1 MOL      0.379313
     74 N8          6.8290    3.2410   -0.1890 n         1 MOL     -0.495318
     75 C23         6.0260    4.4550   -0.2830 c3        1 MOL     -0.060782
     76 C24         4.8190    4.5050    0.6760 c         1 MOL      0.476354
     77 O12         4.8010    4.2590    1.9400 o         1 MOL     -0.493545
     78 H34         7.8180    3.4320   -0.2610 hn        1 MOL      0.339438
     79 H35         5.6870    4.5370   -1.3190 h1        1 MOL      0.087204
     80 H36         6.7060    5.2890   -0.1130 h1        1 MOL      0.087204
     81 N9          3.6940    4.8560    0.1350 n         1 MOL     -0.376515
     82 C25         2.3880    4.7800    0.7470 c3        1 MOL      0.079918
     83 C26         1.9540    3.3580    1.0220 c         1 MOL      0.352218
     84 O13         2.7560    2.4420    0.7030 o         1 MOL     -0.332579
     85 C27         1.3800    5.3900   -0.2980 c3        1 MOL     -0.126460
     86 C28         1.4930    6.9070   -0.4420 ca        1 MOL      0.101383
     87 C29         1.3610    7.7230    0.7080 ca        1 MOL     -0.212197
     88 C30         1.7390    7.4210   -1.6960 ca        1 MOL     -0.212197
     89 C31         1.5600    9.0970    0.5300 ca        1 MOL     -0.215932
     90 C32         1.8620    8.8310   -1.8910 ca        1 MOL     -0.215932
     91 C33         1.6250    9.7000   -0.7590 ca        1 MOL      0.298365
     92 O14         1.6610   11.0340   -0.9330 oh        1 MOL     -0.452628
     93 H37         3.7120    5.2200   -0.8120 hn        1 MOL      0.233938
     94 H38         2.4150    5.3310    1.6870 h1        1 MOL      0.088033
     95 H39         0.4040    5.0810    0.0810 hc        1 MOL      0.038098
     96 H40         1.5390    4.9050   -1.2670 hc        1 MOL      0.038098
     97 H41         1.1760    7.2290    1.6490 ha        1 MOL      0.148378
     98 H42         1.7250    6.8090   -2.5780 ha        1 MOL      0.148378
     99 H43         1.4880    9.6650    1.4450 ha        1 MOL      0.152502
    100 H44         2.1400    9.1640   -2.8740 ha        1 MOL      0.152502
    101 H45         1.5710   11.4910   -0.0920 ho        1 MOL      0.370815
    102 N10         0.7980    3.1020    1.6340 n         1 MOL     -0.448735
    103 C34         0.3720    1.8230    2.2430 c3        1 MOL      0.025336
    104 C35         0.0350    0.6900    1.2510 c         1 MOL      0.144328
    105 O15         0.8600    0.1740    0.4500 o         1 MOL     -0.422018
    106 C36         1.3210    1.3410    3.3470 c3        1 MOL      0.131426
    107 C37         0.8550    0.0970    4.1330 c3        1 MOL     -0.246202
    108 C38         1.6860    2.4940    4.3200 c3        1 MOL     -0.226043
    109 C39        -0.4250    0.3170    4.9310 c3        1 MOL     -0.080320
    110 H46         0.2680    3.9170    1.8860 hn        1 MOL      0.322452
    111 H47        -0.5870    1.9990    2.7380 h1        1 MOL      0.065483
    112 H48         2.2350    1.1010    2.8050 hc        1 MOL      0.054702
    113 H49         1.6410   -0.2660    4.7960 hc        1 MOL      0.111725
    114 H50         0.6670   -0.6870    3.3950 hc        1 MOL      0.111725
    115 H51         2.4030    3.1220    3.7970 hc        1 MOL      0.065794
    116 H52         0.7730    3.0680    4.4440 hc        1 MOL      0.065794
    117 H53         1.9050    2.1930    5.3490 hc        1 MOL      0.065794
    118 H54        -1.2300    0.5460    4.2300 hc        1 MOL      0.025369
    119 H55        -0.7410   -0.5960    5.4330 hc        1 MOL      0.025369
    120 H56        -0.3720    1.0660    5.7210 hc        1 MOL      0.025369
    121 N11        -1.2460    0.2800    1.1280 n         1 MOL     -0.045819
    122 C40        -1.7270   -0.7500    0.2090 c3        1 MOL     -0.349059
    123 C41        -3.2280   -0.6830   -0.1680 c         1 MOL      0.592829
    124 O16        -3.6770   -1.7070   -0.6510 o         1 MOL     -0.515806
    125 C42        -1.4000   -2.1350    0.7770 c3        1 MOL      0.362851
    126 O17        -2.1700   -2.5920    1.8730 oh        1 MOL     -0.648837
    127 H57        -1.8750    0.7770    1.7310 hn        1 MOL      0.248374
    128 H58        -1.1500   -0.5960   -0.6980 h1        1 MOL      0.167226
    129 H59        -0.3380   -2.1740    1.0080 h1        1 MOL     -0.031688
    130 H60        -1.6630   -2.8050   -0.0380 h1        1 MOL     -0.031688
    131 H61        -1.6700   -2.6830    2.6890 ho        1 MOL      0.405193
    132 N12        -3.9130    0.4040   -0.0750 n         1 MOL     -0.441867
    133 C43        -5.3300    0.5990   -0.2050 c3        1 MOL      0.173546
    134 C44        -5.7630    1.1580   -1.6130 c         1 MOL      0.617374
    135 O18        -4.9600    1.8310   -2.2090 o         1 MOL     -0.589597
    136 C45        -5.8370    1.3990    1.0310 c3        1 MOL     -0.105586
    137 H62        -3.4580    1.2070    0.3420 hn        1 MOL      0.200654
    138 H63        -5.7790   -0.3960   -0.1180 h1        1 MOL      0.038794
    139 H64        -5.2760    1.2160    1.9470 hc        1 MOL      0.042883
    140 H65        -5.9860    2.4700    0.9370 hc        1 MOL      0.042883
    141 H66        -6.8690    1.1490    1.2450 hc        1 MOL      0.042883
    142 N13        -6.9320    1.0170   -2.1370 n         1 MOL     -0.606036
    143 C46        -8.0390    0.3330   -1.4890 c3        1 MOL      0.321524
    144 C47        -9.4290    0.8250   -2.1140 c         1 MOL      0.381929
    145 O19        -9.5220    1.2980   -3.2170 o         1 MOL     -0.506077
    146 C48        -7.9550   -1.1590   -1.5580 c3        1 MOL     -0.114977
    147 H67        -7.0530    1.2700   -3.1110 hn        1 MOL      0.346589
    148 H68        -8.1630    0.5670   -0.4330 h1        1 MOL     -0.073305
    149 H69        -8.4470   -1.7110   -0.7570 hc        1 MOL      0.036535
    150 H70        -8.4560   -1.5360   -2.4520 hc        1 MOL      0.036535
    151 H71        -6.9270   -1.5210   -1.6120 hc        1 MOL      0.036535
    152 N14       -10.5520    0.6690   -1.3770 n         1 MOL     -0.328930
    153 C49       -10.6490    0.5620    0.0490 c3        1 MOL     -0.266079
    154 C50       -10.0310    1.7010    0.9120 c         1 MOL      0.427535
    155 O20        -9.5620    1.4530    2.0340 o         1 MOL     -0.511631
    156 C51       -12.0860    0.1860    0.5800 c3        1 MOL      0.001208
    157 C52       -12.5460   -1.2070    0.2030 c3        1 MOL     -0.290814
    158 C53       -13.6310   -1.1750   -0.9350 c         1 MOL      0.690252
    159 O21       -13.2680   -1.6740   -2.0250 o         1 MOL     -0.669346
    160 O22       -14.7800   -0.7040   -0.6880 o         1 MOL     -0.669346
    161 H72       -11.2860    1.0950   -1.9220 hn        1 MOL      0.332470
    162 H73       -10.0470   -0.3230    0.2780 h1        1 MOL      0.171500
    163 H74       -12.7740    0.8970    0.1190 hc        1 MOL      0.057341
    164 H75       -12.1570    0.3050    1.6610 hc        1 MOL      0.057341
    165 H76       -12.8790   -1.6810    1.1300 hc        1 MOL      0.067110
    166 H77       -11.6620   -1.7740   -0.0790 hc        1 MOL      0.067110
    167 N15        -9.9260    2.8900    0.3350 n         1 MOL     -0.171878
    168 C54        -9.1980    3.9810    0.8650 c3        1 MOL     -0.206917
    169 H78        -8.8040    4.5860    0.0480 h1        1 MOL      0.092278
    170 H79        -9.8570    4.5920    1.4840 h1        1 MOL      0.092278
    171 H80        -8.3720    3.6080    1.4710 h1        1 MOL      0.092278
    172 H81       -10.4150    3.0840   -0.5260 hn        1 MOL      0.243578
    173 Ca1         3.0100    0.4430   -0.9040 Ca        1 MOL      1.683123
    174 O23         0.6860    0.9560   -2.4400 oh        1 MOL     -0.820627
    175 H82        -0.2610    0.7930   -2.4390 ho        1 MOL      0.407451
    176 H83         0.8090    1.6470   -3.0960 ho        1 MOL      0.407451
    177 O24         3.1950    2.5970   -2.4550 oh        1 MOL     -0.820627
    178 H84         4.0150    2.8770   -2.8690 ho        1 MOL      0.407451
    179 H85         2.5130    2.8900   -3.0560 ho        1 MOL      0.407451
@<TRIPOS>BOND
     1    1    2 1   
     2    1    4 1   
     3    1    5 1   
     4    1    6 1   
     5    2    3 2   
     6    2    7 1   
     7    7    8 1   
     8    7   15 1   
     9    8    9 1   
    10    8   11 1   
    11    8   16 1   
    12    9   10 2   
    13    9   19 1   
    14   11   12 1   
    15   11   17 1   
    16   11   18 1   
    17   12   13 1   
    18   12   14 1   
    19   19   20 1   
    20   19   28 1   
    21   20   21 1   
    22   20   23 1   
    23   20   29 1   
    24   21   22 2   
    25   21   41 1   
    26   23   24 1   
    27   23   30 1   
    28   23   31 1   
    29   24   25 1   
    30   24   32 1   
    31   24   33 1   
    32   25   26 1   
    33   25   34 1   
    34   25   35 1   
    35   26   27 1   
    36   26   36 1   
    37   26   37 1   
    38   27   38 1   
    39   27   39 1   
    40   27   40 1   
    41   41   42 1   
    42   41   49 1   
    43   42   43 1   
    44   42   45 1   
    45   42   50 1   
    46   43   44 2   
    47   43   53 1   
    48   45   46 1   
    49   45   51 1   
    50   45   52 1   
    51   46   47 1   
    52   46   48 1   
    53   53   54 1   
    54   53   57 1   
    55   54   55 1   
    56   54   58 1   
    57   54   59 1   
    58   55   56 2   
    59   55   60 1   
    60   60   61 1   
    61   60   68 1   
    62   61   62 1   
    63   61   64 1   
    64   61   69 1   
    65   62   63 2   
    66   62   74 1   
    67   64   65 1   
    68   64   70 1   
    69   64   71 1   
    70   65   66 1   
    71   65   67 2   
    72   66   72 1   
    73   66   73 1   
    74   74   75 1   
    75   74   78 1   
    76   75   76 1   
    77   75   79 1   
    78   75   80 1   
    79   76   77 2   
    80   76   81 1   
    81   81   82 1   
    82   81   93 1   
    83   82   83 1   
    84   82   85 1   
    85   82   94 1   
    86   83   84 2   
    87   83  102 1   
    88   85   86 1   
    89   85   95 1   
    90   85   96 1   
    91   86   87 ar  
    92   86   88 ar  
    93   87   89 ar  
    94   87   97 1   
    95   88   90 ar  
    96   88   98 1   
    97   89   91 ar  
    98   89   99 1   
    99   90   91 ar  
   100   90  100 1   
   101   91   92 1   
   102   92  101 1   
   103  102  103 1   
   104  102  110 1   
   105  103  104 1   
   106  103  106 1   
   107  103  111 1   
   108  104  105 2   
   109  104  121 1   
   110  106  107 1   
   111  106  108 1   
   112  106  112 1   
   113  107  109 1   
   114  107  113 1   
   115  107  114 1   
   116  108  115 1   
   117  108  116 1   
   118  108  117 1   
   119  109  118 1   
   120  109  119 1   
   121  109  120 1   
   122  121  122 1   
   123  121  127 1   
   124  122  123 1   
   125  122  125 1   
   126  122  128 1   
   127  123  124 2   
   128  123  132 1   
   129  125  126 1   
   130  125  129 1   
   131  125  130 1   
   132  126  131 1   
   133  132  133 1   
   134  132  137 1   
   135  133  134 1   
   136  133  136 1   
   137  133  138 1   
   138  134  135 2   
   139  134  142 1   
   140  136  139 1   
   141  136  140 1   
   142  136  141 1   
   143  142  143 1   
   144  142  147 1   
   145  143  144 1   
   146  143  146 1   
   147  143  148 1   
   148  144  145 2   
   149  144  152 1   
   150  146  149 1   
   151  146  150 1   
   152  146  151 1   
   153  152  153 1   
   154  152  161 1   
   155  153  154 1   
   156  153  156 1   
   157  153  162 1   
   158  154  155 2   
   159  154  167 1   
   160  156  157 1   
   161  156  163 1   
   162  156  164 1   
   163  157  158 1   
   164  157  165 1   
   165  157  166 1   
   166  158  159 1   
   167  158  160 1   
   168  167  168 1   
   169  167  172 1   
   170  168  169 1   
   171  168  170 1   
   172  168  171 1   
   173  174  175 1   
   174  174  176 1   
   175  177  178 1   
   176  177  179 1   
@<TRIPOS>SUBSTRUCTURE
     1 MOL         1 TEMP              0 ****  ****    0 ROOT
