@<TRIPOS>MOLECULE
MOL
  195   189     1     0     0
SMALL
resp


@<TRIPOS>ATOM
      1 C1          6.6000   -0.4920    5.7540 c3        1 MOL     -0.207599
      2 C2          5.8350   -0.2010    4.4570 c         1 MOL      0.744584
      3 O1          5.4070    0.9340    4.1690 o         1 MOL     -0.591489
      4 H1          6.2910   -1.4600    6.1480 hc        1 MOL      0.051743
      5 H2          7.6710   -0.5080    5.5500 hc        1 MOL      0.051743
      6 H3          6.3820    0.2850    6.4880 hc        1 MOL      0.051743
      7 N1          5.7250   -1.2380    3.5880 n         1 MOL     -0.717018
      8 C3          5.4280   -1.1480    2.1180 c3        1 MOL      0.535575
      9 C4          3.9510   -0.8090    1.7250 c         1 MOL     -0.253145
     10 O2          3.5910   -0.9600    0.5520 o         1 MOL      0.052423
     11 C5          5.7490   -2.5180    1.4350 c3        1 MOL     -0.096696
     12 C6          7.1450   -3.1770    1.7980 c         1 MOL      0.592510
     13 O3          7.8300   -3.7360    0.8750 o         1 MOL     -0.651532
     14 O4          7.4930   -3.1950    2.9980 o         1 MOL     -0.651532
     15 H4          6.0730   -2.1270    3.9150 hn        1 MOL      0.328687
     16 H5          6.1060   -0.4500    1.6290 h1        1 MOL      0.027397
     17 H6          5.6960   -2.4850    0.3430 hc        1 MOL     -0.012577
     18 H7          4.9860   -3.2510    1.6940 hc        1 MOL     -0.012577
     19 N2          3.0360   -0.4470    2.6570 n         1 MOL     -0.097572
     20 C7          1.5750   -0.5730    2.6020 c3        1 MOL      0.293239
     21 C8          0.8900    0.8160    2.5620 c         1 MOL      0.173252
     22 O5          1.3150    1.6290    3.4090 o         1 MOL     -0.436218
     23 C9          0.9870   -1.5230    3.6240 c3        1 MOL     -0.281672
     24 C10         1.3960   -2.9360    3.3190 c3        1 MOL      0.044088
     25 C11         0.7960   -3.9890    4.3190 c3        1 MOL     -0.107703
     26 C12        -0.6760   -3.9990    4.5890 c3        1 MOL      0.148076
     27 N3         -1.1600   -5.2740    5.1990 n4        1 MOL     -0.494434
     28 H8          3.4080   -0.3730    3.5980 hn        1 MOL      0.174266
     29 H9          1.3730   -0.9160    1.5860 h1        1 MOL      0.069463
     30 H10        -0.0930   -1.5920    3.4670 hc        1 MOL      0.081697
     31 H11         1.2600   -1.2030    4.6320 hc        1 MOL      0.081697
     32 H12         2.4830   -2.9800    3.3860 hc        1 MOL      0.030698
     33 H13         1.0330   -3.1850    2.3230 hc        1 MOL      0.030698
     34 H14         1.3480   -3.9770    5.2640 hc        1 MOL      0.036690
     35 H15         1.0820   -4.9980    4.0190 hc        1 MOL      0.036690
     36 H16        -1.2030   -3.9160    3.6280 hx        1 MOL      0.090808
     37 H17        -0.9460   -3.1440    5.2150 hx        1 MOL      0.090808
     38 H18        -0.7310   -6.0360    4.6920 hn        1 MOL      0.359126
     39 H19        -1.0110   -5.3230    6.1980 hn        1 MOL      0.359126
     40 H20        -2.1450   -5.4850    5.1510 hn        1 MOL      0.359126
     41 N4         -0.1920    1.1780    1.7590 n         1 MOL     -0.075714
     42 C13        -0.8330    0.4710    0.5790 c3        1 MOL      0.021652
     43 C14        -1.1860   -1.0020    0.7620 c         1 MOL      0.110159
     44 O6         -0.5400   -1.8380    0.1780 o         1 MOL     -0.243891
     45 C15        -0.0560    0.7470   -0.6590 c3        1 MOL     -0.232018
     46 C16         0.1370    2.2490   -0.9430 c         1 MOL      0.632358
     47 O7          0.6490    2.6450   -2.0360 o         1 MOL     -0.648376
     48 O8         -0.3490    3.1140   -0.1910 o         1 MOL     -0.648376
     49 H21        -0.5250    2.1250    1.7580 hn        1 MOL      0.050160
     50 H22        -1.8090    0.9610    0.4960 h1        1 MOL      0.007644
     51 H23        -0.6030    0.2930   -1.4900 hc        1 MOL      0.128660
     52 H24         0.8870    0.2050   -0.5270 hc        1 MOL      0.128660
     53 N5         -2.1360   -1.3770    1.5540 n         1 MOL     -0.325955
     54 C17        -3.1320   -0.5000    2.1800 c3        1 MOL     -0.039825
     55 C18        -4.1820   -1.2890    2.9160 c         1 MOL      0.620669
     56 O9         -3.9000   -2.3650    3.3260 o         1 MOL     -0.612132
     57 H25        -2.2620   -2.3640    1.7200 hn        1 MOL      0.269794
     58 H26        -3.5550    0.0730    1.3550 h1        1 MOL      0.108619
     59 H27        -2.6330    0.1530    2.8930 h1        1 MOL      0.108619
     60 N6         -5.4030   -0.7950    3.0720 n         1 MOL     -0.555472
     61 C19        -5.8240    0.6000    2.8570 c3        1 MOL      0.114160
     62 C20        -6.9180    0.7660    1.8080 c         1 MOL      0.364291
     63 O10        -7.7700   -0.1250    1.6410 o         1 MOL     -0.432929
     64 C21        -6.0910    1.2870    4.1440 c3        1 MOL     -0.012587
     65 C22        -6.9130    0.5090    5.2240 c         1 MOL      0.726108
     66 O11        -6.3920   -0.0250    6.2810 o         1 MOL     -0.673232
     67 O12        -8.1290    0.5480    5.0940 o         1 MOL     -0.673232
     68 H28        -6.0700   -1.3720    3.5590 hn        1 MOL      0.350265
     69 H29        -4.9430    1.0860    2.4360 h1        1 MOL     -0.063651
     70 H30        -6.6260    2.2340    4.0750 hc        1 MOL     -0.035967
     71 H31        -5.1770    1.4990    4.7020 hc        1 MOL     -0.035967
     72 N7         -6.9120    1.9090    1.1670 n         1 MOL     -0.097169
     73 C23        -7.7970    2.1960    0.0570 c3        1 MOL     -0.266279
     74 C24        -7.3770    1.4610   -1.2670 c         1 MOL      0.592558
     75 O13        -8.2430    1.1060   -2.0520 o         1 MOL     -0.538828
     76 H32        -6.3600    2.6580    1.5570 hn        1 MOL      0.180727
     77 H33        -7.7980    3.2360   -0.2740 h1        1 MOL      0.117976
     78 H34        -8.7850    1.8140    0.3000 h1        1 MOL      0.117976
     79 N8         -6.0840    1.2610   -1.3880 n         1 MOL     -0.361328
     80 C25        -5.3890    0.6500   -2.5160 c3        1 MOL      0.047701
     81 C26        -4.3720   -0.2970   -1.9750 c         1 MOL      0.361652
     82 O14        -3.3390    0.1200   -1.4390 o         1 MOL     -0.437702
     83 C27        -4.6910    1.7430   -3.2850 c3        1 MOL      0.494882
     84 C28        -5.7460    2.6500   -3.9130 c3        1 MOL     -0.359796
     85 O15        -3.9820    1.2750   -4.4170 oh        1 MOL     -0.639748
     86 H35        -5.5280    1.7340   -0.7060 hn        1 MOL      0.165991
     87 H36        -6.1060    0.0970   -3.1240 h1        1 MOL      0.097898
     88 H37        -3.9490    2.2970   -2.6980 h1        1 MOL     -0.092025
     89 H38        -3.0480    1.4920   -4.2750 ho        1 MOL      0.423849
     90 H39        -5.2290    3.3320   -4.5820 hc        1 MOL      0.085254
     91 H40        -6.4500    2.0470   -4.4820 hc        1 MOL      0.085254
     92 H41        -6.2080    3.2480   -3.1300 hc        1 MOL      0.085254
     93 N9         -4.8280   -1.5680   -1.8920 n         1 MOL     -0.416712
     94 C29        -4.1570   -2.5510   -1.0060 c3        1 MOL     -0.251801
     95 C30        -2.8180   -3.1670   -1.6130 c         1 MOL      0.194658
     96 O16        -2.3280   -4.2080   -1.1770 o         1 MOL     -0.500817
     97 C31        -5.1680   -3.6130   -0.4970 c3        1 MOL      0.393346
     98 C32        -5.6760   -4.5980   -1.5810 c3        1 MOL     -0.030327
     99 C33        -6.3580   -2.9430    0.2110 c3        1 MOL     -0.290252
    100 C34        -5.9700   -5.9260   -0.9490 c3        1 MOL     -0.087480
    101 H42        -5.6820   -1.8100   -2.3570 hn        1 MOL      0.317426
    102 H43        -3.7390   -2.0660   -0.1320 h1        1 MOL      0.190860
    103 H44        -4.6520   -4.1540    0.2930 hc        1 MOL     -0.011973
    104 H45        -4.9880   -4.7250   -2.4070 hc        1 MOL      0.016018
    105 H46        -6.6080   -4.2480   -2.0300 hc        1 MOL      0.016018
    106 H47        -6.0140   -2.3120    1.0230 hc        1 MOL      0.063494
    107 H48        -6.9210   -2.3810   -0.5390 hc        1 MOL      0.063494
    108 H49        -6.9780   -3.6980    0.6890 hc        1 MOL      0.063494
    109 H50        -6.4970   -6.6230   -1.6020 hc        1 MOL      0.016830
    110 H51        -5.1040   -6.4510   -0.5460 hc        1 MOL      0.016830
    111 H52        -6.5780   -5.8060   -0.0590 hc        1 MOL      0.016830
    112 N10        -2.3680   -2.5550   -2.6960 n         1 MOL      0.277549
    113 C35        -1.6230   -3.2810   -3.7420 c3        1 MOL     -0.063844
    114 C36        -0.0600   -3.1570   -3.5750 c         1 MOL      0.299670
    115 O17         0.6830   -3.7880   -4.3300 o         1 MOL     -0.491378
    116 C37        -2.1700   -2.8310   -5.1180 c3        1 MOL      0.265521
    117 C38        -1.8840   -1.3610   -5.4400 c3        1 MOL     -0.157918
    118 O18        -3.5120   -3.0370   -5.1200 oh        1 MOL     -0.674691
    119 H53        -2.7870   -1.7030   -3.0310 hn        1 MOL      0.090823
    120 H54        -1.9200   -4.3280   -3.6720 h1        1 MOL      0.114797
    121 H55        -1.7070   -3.5070   -5.8410 h1        1 MOL      0.017126
    122 H56        -3.6660   -3.0350   -6.0660 ho        1 MOL      0.426330
    123 H57        -2.5780   -0.7150   -4.9050 hc        1 MOL      0.041056
    124 H58        -0.8880   -1.0140   -5.1620 hc        1 MOL      0.041056
    125 H59        -2.0060   -1.1610   -6.5050 hc        1 MOL      0.041056
    126 N11         0.3940   -2.5100   -2.4260 n         1 MOL     -0.097401
    127 C39         1.8100   -2.4140   -2.0510 c3        1 MOL      0.158774
    128 C40         2.5990   -1.5870   -3.0630 c         1 MOL      0.489608
    129 O19         2.2880   -1.4290   -4.2720 o         1 MOL     -0.511665
    130 C41         2.4440   -3.7460   -1.7870 c3        1 MOL      0.299519
    131 C42         2.0780   -4.2030   -0.4420 c3        1 MOL     -0.147742
    132 O20         3.8190   -3.4880   -1.8340 oh        1 MOL     -0.661022
    133 H60        -0.3120   -2.1340   -1.8050 hn        1 MOL     -0.107988
    134 H61         1.7360   -1.7740   -1.1820 h1        1 MOL     -0.127851
    135 H62         2.0640   -4.4430   -2.5470 h1        1 MOL      0.036734
    136 H63         4.3520   -4.2250   -1.5460 ho        1 MOL      0.393101
    137 H64         2.1870   -5.2810   -0.3550 hc        1 MOL      0.016805
    138 H65         2.6830   -3.6270    0.2590 hc        1 MOL      0.016805
    139 H66         1.0230   -3.9730   -0.2930 hc        1 MOL      0.016805
    140 N12         3.5040   -0.7650   -2.4910 n         1 MOL     -0.243134
    141 C43         4.2450    0.2150   -3.2360 c3        1 MOL     -0.000866
    142 C44         4.2850    1.6000   -2.5490 c         1 MOL      0.664097
    143 O21         4.7320    2.5250   -3.2000 o         1 MOL     -0.600533
    144 C45         5.7230   -0.2820   -3.3430 c3        1 MOL     -0.230286
    145 C46         6.4930   -0.3940   -1.9890 c3        1 MOL     -0.066672
    146 C47         7.6850   -1.3750   -2.1860 c3        1 MOL     -0.056023
    147 C48         7.2570   -2.8330   -2.1740 c3        1 MOL      0.089653
    148 N13         8.4030   -3.7470   -2.1360 n4        1 MOL     -0.294363
    149 H67         3.6870   -0.8680   -1.4970 hn        1 MOL      0.007915
    150 H68         3.8080    0.3080   -4.2310 h1        1 MOL      0.101992
    151 H69         6.2960    0.3710   -4.0080 hc        1 MOL      0.086187
    152 H70         5.6680   -1.2740   -3.7910 hc        1 MOL      0.086187
    153 H71         5.7180   -0.7600   -1.3130 hc        1 MOL      0.075809
    154 H72         6.8150    0.5520   -1.5550 hc        1 MOL      0.075809
    155 H73         8.3560   -1.2770   -1.3330 hc        1 MOL      0.030898
    156 H74         8.1960   -1.1460   -3.1200 hc        1 MOL      0.030898
    157 H75         6.7020   -2.9470   -3.0960 hx        1 MOL      0.044232
    158 H76         6.6190   -3.0580   -1.3300 hx        1 MOL      0.044232
    159 H77         8.7630   -3.9150   -1.2120 hn        1 MOL      0.290626
    160 H78         8.1750   -4.6480   -2.5280 hn        1 MOL      0.290626
    161 H79         9.0970   -3.3970   -2.7860 hn        1 MOL      0.290626
    162 N14         3.8270    1.7550   -1.2770 n         1 MOL     -0.457510
    163 C49         4.0610    2.9770   -0.4730 c3        1 MOL      0.109884
    164 C50         5.4960    3.2030   -0.1710 c         1 MOL      0.247329
    165 O22         6.1290    2.4180    0.5240 o         1 MOL     -0.501186
    166 C51         3.2550    2.9010    0.8250 c3        1 MOL      0.314700
    167 C52         3.2890    4.2120    1.6670 c3        1 MOL     -0.304813
    168 C53         2.7170    5.4880    0.9370 c         1 MOL      0.315482
    169 O23         3.5450    6.2880    0.5240 o         1 MOL     -0.581132
    170 O24         1.4860    5.6110    0.6290 o         1 MOL     -0.581132
    171 H80         3.3150    1.0370   -0.7950 hn        1 MOL      0.157024
    172 H81         3.6380    3.7810   -1.0800 h1        1 MOL      0.080721
    173 H82         3.6880    2.1900    1.5320 hc        1 MOL     -0.079774
    174 H83         2.2080    2.6170    0.7070 hc        1 MOL     -0.079774
    175 H84         4.2760    4.4170    2.0750 hc        1 MOL      0.123970
    176 H85         2.6930    3.9180    2.5250 hc        1 MOL      0.123970
    177 N15         5.9770    4.3440   -0.5530 n         1 MOL     -0.109388
    178 C54         7.2890    4.9350   -0.3000 c3        1 MOL     -0.034200
    179 H86         7.5860    5.5400   -1.1570 h1        1 MOL      0.048820
    180 H87         7.2400    5.5650    0.5880 h1        1 MOL      0.048820
    181 H88         8.0210    4.1430   -0.1440 h1        1 MOL      0.048820
    182 H89         5.3750    4.8910   -1.1570 hn        1 MOL      0.260767
    183 Ca1        -1.1060    5.5280    0.4250 Ca        1 MOL      1.586053
    184 O25        -3.1720    7.4160   -0.2050 oh        1 MOL     -0.824223
    185 H90        -4.0090    7.3140    0.2520 ho        1 MOL      0.409897
    186 H91        -3.3200    8.1320   -0.8210 ho        1 MOL      0.409897
    187 O26        -2.5920    4.4310   -1.5850 oh        1 MOL     -0.824223
    188 H92        -2.3320    3.9000   -2.3290 ho        1 MOL      0.409897
    189 H93        -3.4340    4.8190   -1.8470 ho        1 MOL      0.409897
    190 O27         1.0860    5.2810   -1.9540 oh        1 MOL     -0.824223
    191 H94         1.3680    5.4280   -1.0530 ho        1 MOL      0.409897
    192 H95         0.9760    4.3360   -2.0180 ho        1 MOL      0.409897
    193 O28         0.1650    8.0150   -0.4640 oh        1 MOL     -0.824223
    194 H96         1.0270    8.3490   -0.7230 ho        1 MOL      0.409897
    195 H97         0.0580    8.3090    0.4390 ho        1 MOL      0.409897
@<TRIPOS>BOND
     1    1    2 1   
     2    1    4 1   
     3    1    5 1   
     4    1    6 1   
     5    2    3 2   
     6    2    7 1   
     7    7    8 1   
     8    7   15 1   
     9    8    9 1   
    10    8   11 1   
    11    8   16 1   
    12    9   10 2   
    13    9   19 1   
    14   11   12 1   
    15   11   17 1   
    16   11   18 1   
    17   12   13 1   
    18   12   14 1   
    19   19   20 1   
    20   19   28 1   
    21   20   21 1   
    22   20   23 1   
    23   20   29 1   
    24   21   22 2   
    25   21   41 1   
    26   23   24 1   
    27   23   30 1   
    28   23   31 1   
    29   24   25 1   
    30   24   32 1   
    31   24   33 1   
    32   25   26 1   
    33   25   34 1   
    34   25   35 1   
    35   26   27 1   
    36   26   36 1   
    37   26   37 1   
    38   27   38 1   
    39   27   39 1   
    40   27   40 1   
    41   41   42 1   
    42   41   49 1   
    43   42   43 1   
    44   42   45 1   
    45   42   50 1   
    46   43   44 2   
    47   43   53 1   
    48   45   46 1   
    49   45   51 1   
    50   45   52 1   
    51   46   47 1   
    52   46   48 1   
    53   53   54 1   
    54   53   57 1   
    55   54   55 1   
    56   54   58 1   
    57   54   59 1   
    58   55   56 2   
    59   55   60 1   
    60   60   61 1   
    61   60   68 1   
    62   61   62 1   
    63   61   64 1   
    64   61   69 1   
    65   62   63 2   
    66   62   72 1   
    67   64   65 1   
    68   64   70 1   
    69   64   71 1   
    70   65   66 1   
    71   65   67 1   
    72   72   73 1   
    73   72   76 1   
    74   73   74 1   
    75   73   77 1   
    76   73   78 1   
    77   74   75 2   
    78   74   79 1   
    79   79   80 1   
    80   79   86 1   
    81   80   81 1   
    82   80   83 1   
    83   80   87 1   
    84   81   82 2   
    85   81   93 1   
    86   83   84 1   
    87   83   85 1   
    88   83   88 1   
    89   84   90 1   
    90   84   91 1   
    91   84   92 1   
    92   85   89 1   
    93   93   94 1   
    94   93  101 1   
    95   94   95 1   
    96   94   97 1   
    97   94  102 1   
    98   95   96 2   
    99   95  112 1   
   100   97   98 1   
   101   97   99 1   
   102   97  103 1   
   103   98  100 1   
   104   98  104 1   
   105   98  105 1   
   106   99  106 1   
   107   99  107 1   
   108   99  108 1   
   109  100  109 1   
   110  100  110 1   
   111  100  111 1   
   112  112  113 1   
   113  112  119 1   
   114  113  114 1   
   115  113  116 1   
   116  113  120 1   
   117  114  115 2   
   118  114  126 1   
   119  116  117 1   
   120  116  118 1   
   121  116  121 1   
   122  117  123 1   
   123  117  124 1   
   124  117  125 1   
   125  118  122 1   
   126  126  127 1   
   127  126  133 1   
   128  127  128 1   
   129  127  130 1   
   130  127  134 1   
   131  128  129 2   
   132  128  140 1   
   133  130  131 1   
   134  130  132 1   
   135  130  135 1   
   136  131  137 1   
   137  131  138 1   
   138  131  139 1   
   139  132  136 1   
   140  140  141 1   
   141  140  149 1   
   142  141  142 1   
   143  141  144 1   
   144  141  150 1   
   145  142  143 2   
   146  142  162 1   
   147  144  145 1   
   148  144  151 1   
   149  144  152 1   
   150  145  146 1   
   151  145  153 1   
   152  145  154 1   
   153  146  147 1   
   154  146  155 1   
   155  146  156 1   
   156  147  148 1   
   157  147  157 1   
   158  147  158 1   
   159  148  159 1   
   160  148  160 1   
   161  148  161 1   
   162  162  163 1   
   163  162  171 1   
   164  163  164 1   
   165  163  166 1   
   166  163  172 1   
   167  164  165 2   
   168  164  177 1   
   169  166  167 1   
   170  166  173 1   
   171  166  174 1   
   172  167  168 1   
   173  167  175 1   
   174  167  176 1   
   175  168  169 1   
   176  168  170 1   
   177  177  178 1   
   178  177  182 1   
   179  178  179 1   
   180  178  180 1   
   181  178  181 1   
   182  184  185 1   
   183  184  186 1   
   184  187  188 1   
   185  187  189 1   
   186  190  191 1   
   187  190  192 1   
   188  193  194 1   
   189  193  195 1   
@<TRIPOS>SUBSTRUCTURE
     1 MOL         1 TEMP              0 ****  ****    0 ROOT
