@<TRIPOS>MOLECULE
MOL
  179   176     1     0     0
SMALL
resp


@<TRIPOS>ATOM
      1 C1          1.5900   -3.8340    6.4840 c3        1 MOL     -0.420123
      2 C2          1.6250   -3.7060    4.9360 c         1 MOL      0.775402
      3 O1          0.7260   -4.0650    4.2160 o         1 MOL     -0.596563
      4 H1          2.6060   -3.9380    6.8620 hc        1 MOL      0.115438
      5 H2          1.1340   -2.9410    6.9130 hc        1 MOL      0.115438
      6 H3          1.0060   -4.7100    6.7630 hc        1 MOL      0.115438
      7 N1          2.6800   -3.1000    4.3820 n         1 MOL     -0.606726
      8 C3          2.9370   -2.8730    2.9900 c3        1 MOL      0.078791
      9 C4          3.4110   -4.1030    2.1840 c         1 MOL      0.680434
     10 O2          4.2530   -4.8440    2.6680 o         1 MOL     -0.572145
     11 C5          3.9000   -1.7030    2.8240 c3        1 MOL      0.063433
     12 C6          3.8150   -1.0180    1.4680 c         1 MOL      0.479046
     13 O3          4.1740    0.2050    1.3010 o         1 MOL     -0.657015
     14 O4          3.5290   -1.7270    0.4860 o         1 MOL     -0.657015
     15 H4          3.3970   -2.7550    4.9880 hn        1 MOL      0.308164
     16 H5          2.0320   -2.5180    2.5140 h1        1 MOL     -0.132572
     17 H6          4.8910   -2.1270    2.8830 hc        1 MOL      0.020881
     18 H7          3.7650   -1.0460    3.6860 hc        1 MOL      0.020881
     19 N2          2.9730   -4.3050    0.9220 n         1 MOL     -0.250164
     20 C7          3.4400   -5.3210   -0.0660 c3        1 MOL      0.013139
     21 C8          4.6680   -4.9700   -0.8740 c         1 MOL      0.454498
     22 O5          5.3810   -5.8650   -1.3570 o         1 MOL     -0.544827
     23 C9          2.2970   -5.6010   -1.0870 c3        1 MOL     -0.128555
     24 C10         2.1010   -4.4480   -2.0470 c3        1 MOL     -0.065113
     25 C11         0.7860   -4.5770   -2.8610 c3        1 MOL     -0.022300
     26 C12        -0.5380   -4.4050   -2.1010 c3        1 MOL     -0.156342
     27 N3         -1.7730   -4.2970   -2.9350 n4        1 MOL     -0.249722
     28 H8          2.2470   -3.6720    0.5990 hn        1 MOL     -0.056373
     29 H9          3.6870   -6.2050    0.5320 h1        1 MOL      0.101960
     30 H10         1.3380   -5.7760   -0.6080 hc        1 MOL      0.061907
     31 H11         2.6670   -6.4430   -1.6760 hc        1 MOL      0.061907
     32 H12         2.9310   -4.5550   -2.7410 hc        1 MOL      0.112448
     33 H13         2.1410   -3.4880   -1.5370 hc        1 MOL      0.112448
     34 H14         0.7010   -5.4870   -3.4590 hc        1 MOL      0.040032
     35 H15         0.7960   -3.8570   -3.6740 hc        1 MOL      0.040032
     36 H16        -0.4670   -3.4860   -1.5200 hx        1 MOL      0.119728
     37 H17        -0.6500   -5.2070   -1.3670 hx        1 MOL      0.119728
     38 H18        -2.5810   -4.0930   -2.3760 hn        1 MOL      0.288268
     39 H19        -1.7310   -3.5800   -3.6440 hn        1 MOL      0.288268
     40 H20        -2.0010   -5.1140   -3.4940 hn        1 MOL      0.288268
     41 N4          4.9320   -3.6940   -1.0660 n         1 MOL     -0.100004
     42 C13         6.0380   -3.1460   -1.9000 c3        1 MOL     -0.013028
     43 C14         6.9790   -2.2940   -1.1130 c         1 MOL      0.443721
     44 O6          8.1990   -2.2780   -1.3730 o         1 MOL     -0.526724
     45 C15         5.5450   -2.4500   -3.2410 c3        1 MOL     -0.159761
     46 C16         4.3140   -1.6840   -3.0200 c         1 MOL      0.879128
     47 O7          3.2600   -1.9120   -3.6410 o         1 MOL     -0.804565
     48 O8          4.4120   -0.6930   -2.2280 o         1 MOL     -0.804565
     49 H21         4.2640   -3.0590   -0.6560 hn        1 MOL     -0.031023
     50 H22         6.6370   -3.9960   -2.2200 h1        1 MOL      0.105116
     51 H23         5.2150   -3.2850   -3.8630 hc        1 MOL      0.045532
     52 H24         6.2890   -1.7720   -3.6650 hc        1 MOL      0.045532
     53 N5          6.4810   -1.5490   -0.0960 n         1 MOL     -0.262401
     54 C17         7.2630   -0.5110    0.6690 c3        1 MOL     -0.184338
     55 C18         7.1610    0.9180    0.1600 c         1 MOL      0.514514
     56 O9          7.6850    1.8510    0.8150 o         1 MOL     -0.554369
     57 H25         5.4830   -1.5760    0.0090 hn        1 MOL      0.235377
     58 H26         8.3350   -0.7210    0.7360 h1        1 MOL      0.128716
     59 H27         6.9500   -0.4040    1.6990 h1        1 MOL      0.128716
     60 N6          6.4860    1.1680   -0.9860 n         1 MOL     -0.162332
     61 C19         6.4100    2.4790   -1.6610 c3        1 MOL      0.017114
     62 C20         5.0870    3.1290   -1.4120 c         1 MOL      0.749671
     63 O10         4.1400    2.3970   -1.3300 o         1 MOL     -0.718584
     64 C21         6.8230    2.4030   -3.1300 c3        1 MOL     -0.108937
     65 C22         8.1770    1.8660   -3.5480 c         1 MOL      0.672187
     66 N7          8.1890    0.7830   -4.3540 n         1 MOL     -0.880283
     67 O11         9.1390    2.3590   -3.0680 o         1 MOL     -0.510206
     68 H28         5.9730    0.4170   -1.4300 hn        1 MOL      0.175817
     69 H29         7.1260    3.1930   -1.2430 h1        1 MOL      0.011514
     70 H30         6.6870    3.4230   -3.4920 hc        1 MOL      0.001469
     71 H31         6.0090    1.7860   -3.5210 hc        1 MOL      0.001469
     72 H32         7.3510    0.3820   -4.7310 hn        1 MOL      0.399965
     73 H33         9.0940    0.3340   -4.4680 hn        1 MOL      0.399965
     74 N8          5.0380    4.4690   -1.4520 n         1 MOL     -0.514740
     75 C23         3.7790    5.2340   -1.3540 c3        1 MOL     -0.155211
     76 C24         3.2050    5.1610    0.0400 c         1 MOL      0.604677
     77 O12         3.8910    5.0920    1.0590 o         1 MOL     -0.469742
     78 H34         5.8610    4.9940   -1.7020 hn        1 MOL      0.367225
     79 H35         3.1430    4.8530   -2.1530 h1        1 MOL      0.112315
     80 H36         4.0300    6.2680   -1.6050 h1        1 MOL      0.112315
     81 N9          1.8430    4.9940    0.0500 n         1 MOL     -0.584242
     82 C25         1.0620    4.5820    1.1920 c3        1 MOL      0.115560
     83 C26         1.0930    3.0830    1.4160 c         1 MOL      0.605769
     84 O13         1.9610    2.3940    0.8980 o         1 MOL     -0.414391
     85 C27        -0.2890    5.0610    0.8840 c3        1 MOL     -0.179736
     86 C28        -0.4950    6.4930    0.5720 ca        1 MOL      0.066747
     87 C29        -0.1890    7.4140    1.6110 ca        1 MOL     -0.152553
     88 C30        -1.0180    6.9810   -0.7030 ca        1 MOL     -0.152553
     89 C31        -0.3270    8.7630    1.3360 ca        1 MOL     -0.250986
     90 C32        -1.2140    8.2770   -0.9260 ca        1 MOL     -0.250986
     91 C33        -0.8200    9.2170    0.0560 ca        1 MOL      0.317100
     92 O14        -1.0680   10.4960   -0.0700 oh        1 MOL     -0.420761
     93 H37         1.3500    5.0340   -0.8310 hn        1 MOL      0.281510
     94 H38         1.4010    5.0380    2.1230 h1        1 MOL      0.105401
     95 H39        -1.0040    4.9590    1.7010 hc        1 MOL      0.055696
     96 H40        -0.6750    4.3790    0.1260 hc        1 MOL      0.055696
     97 H41         0.2210    7.0420    2.5440 ha        1 MOL      0.132112
     98 H42        -1.2100    6.2920   -1.5090 ha        1 MOL      0.132112
     99 H43        -0.2270    9.4810    2.1330 ha        1 MOL      0.160784
    100 H44        -1.4980    8.5910   -1.9200 ha        1 MOL      0.160784
    101 H45        -0.8170   10.8990    0.7690 ho        1 MOL      0.347693
    102 N10         0.1550    2.5410    2.2890 n         1 MOL     -0.725317
    103 C34         0.0730    1.1150    2.7210 c3        1 MOL      0.041438
    104 C35        -0.0540    0.0640    1.6510 c         1 MOL      0.515398
    105 O15         0.9290   -0.3680    1.0640 o         1 MOL     -0.277792
    106 C36         0.9930    0.6910    3.8850 c3        1 MOL      0.248050
    107 C37         0.4770   -0.5310    4.6800 c3        1 MOL     -0.069685
    108 C38         1.2720    1.8710    4.8320 c3        1 MOL     -0.258850
    109 C39        -0.8340   -0.3840    5.5550 c3        1 MOL     -0.270301
    110 H46        -0.4470    3.1950    2.7530 hn        1 MOL      0.347221
    111 H47        -0.9010    1.0880    3.2020 h1        1 MOL      0.084054
    112 H48         1.9190    0.4190    3.3930 hc        1 MOL     -0.031601
    113 H49         1.2150   -0.8450    5.4130 hc        1 MOL      0.060160
    114 H50         0.4260   -1.3850    4.0030 hc        1 MOL      0.060160
    115 H51         1.7580    2.7050    4.3280 hc        1 MOL      0.070263
    116 H52         0.3660    2.2270    5.3190 hc        1 MOL      0.070263
    117 H53         1.9430    1.5360    5.6280 hc        1 MOL      0.070263
    118 H54        -0.7070    0.4300    6.2610 hc        1 MOL      0.072140
    119 H55        -1.7050   -0.1510    4.9480 hc        1 MOL      0.072140
    120 H56        -1.0410   -1.3050    6.1060 hc        1 MOL      0.072140
    121 N11        -1.2650   -0.4530    1.4250 n         1 MOL     -0.539181
    122 C40        -1.5820   -1.6480    0.5780 c3        1 MOL      0.009059
    123 C41        -3.1230   -1.7910    0.1890 c         1 MOL      0.422441
    124 O16        -3.4240   -2.6100   -0.6000 o         1 MOL     -0.475935
    125 C42        -1.1400   -2.8600    1.3050 c3        1 MOL     -0.150934
    126 O17         0.1760   -2.9530    0.8520 oh        1 MOL     -0.210036
    127 H57        -2.0660   -0.0510    1.8930 hn        1 MOL      0.301406
    128 H58        -1.1260   -1.5940   -0.4060 h1        1 MOL      0.164808
    129 H59        -1.6520   -3.7830    1.0420 h1        1 MOL      0.146907
    130 H60        -1.1310   -2.8080    2.3950 h1        1 MOL      0.146907
    131 H61         0.5320   -2.0630    0.8210 ho        1 MOL      0.151542
    132 N12        -4.0550   -1.0700    0.8530 n         1 MOL     -0.413369
    133 C43        -5.4920   -1.1330    0.5650 c3        1 MOL      0.008770
    134 C44        -5.8760   -0.3770   -0.7540 c         1 MOL      0.709179
    135 O18        -5.1180    0.5260   -1.1790 o         1 MOL     -0.604816
    136 C45        -6.2080   -0.6570    1.8190 c3        1 MOL     -0.254234
    137 H62        -3.7740   -0.4150    1.5720 hn        1 MOL      0.263718
    138 H63        -5.7080   -2.1790    0.3400 h1        1 MOL      0.132579
    139 H64        -6.0360    0.3560    2.1570 hc        1 MOL      0.090848
    140 H65        -7.2760   -0.7200    1.5980 hc        1 MOL      0.090848
    141 H66        -6.0220   -1.3700    2.6340 hc        1 MOL      0.090848
    142 N13        -6.9590   -0.6310   -1.5030 n         1 MOL     -0.715539
    143 C46        -7.8350   -1.8500   -1.4730 c3        1 MOL      0.271538
    144 C47        -9.0610   -1.4740   -2.2860 c         1 MOL      0.501848
    145 O19        -8.9210   -1.5100   -3.5240 o         1 MOL     -0.550624
    146 C48        -7.1660   -3.1830   -1.8040 c3        1 MOL     -0.146372
    147 H67        -7.1850    0.0590   -2.1960 hn        1 MOL      0.384545
    148 H68        -8.2560   -1.9510   -0.4690 h1        1 MOL     -0.048062
    149 H69        -6.3020   -3.4360   -1.1830 hc        1 MOL      0.041366
    150 H70        -7.8540   -4.0210   -1.8130 hc        1 MOL      0.041366
    151 H71        -6.6670   -3.1830   -2.7630 hc        1 MOL      0.041366
    152 N14       -10.2300   -1.1210   -1.7240 n         1 MOL     -0.488981
    153 C49       -10.7120   -1.3850   -0.3450 c3        1 MOL      0.108503
    154 C50       -10.1720   -0.3230    0.7050 c         1 MOL      0.503093
    155 O20        -9.8910   -0.6330    1.8670 o         1 MOL     -0.573119
    156 C51       -12.2410   -1.5470   -0.3880 c3        1 MOL      0.006141
    157 C52       -13.0490   -0.1950   -0.4650 c3        1 MOL     -0.233682
    158 C53       -12.9110    0.5270   -1.8300 c         1 MOL      0.731891
    159 O21       -13.0980   -0.0870   -2.8970 o         1 MOL     -0.687368
    160 O22       -12.5010    1.7000   -1.8340 o         1 MOL     -0.687368
    161 H72       -10.8970   -0.9700   -2.4630 hn        1 MOL      0.328958
    162 H73       -10.3230   -2.3130    0.0550 h1        1 MOL      0.014030
    163 H74       -12.5270   -2.1510    0.4780 hc        1 MOL      0.016978
    164 H75       -12.4030   -2.0820   -1.3200 hc        1 MOL      0.016978
    165 H76       -12.8030    0.4230    0.4030 hc        1 MOL      0.038667
    166 H77       -14.1180   -0.4260   -0.4640 hc        1 MOL      0.038667
    167 N15       -10.1550    0.9150    0.2730 n         1 MOL     -0.159917
    168 C54        -9.6520    2.1170    1.0250 c3        1 MOL     -0.352555
    169 H78        -9.6270    2.9780    0.3570 h1        1 MOL      0.138806
    170 H79       -10.3180    2.3270    1.8620 h1        1 MOL      0.138806
    171 H80        -8.6470    1.9180    1.3990 h1        1 MOL      0.138806
    172 H81       -10.5700    1.0960   -0.6240 hn        1 MOL      0.182686
    173 Ca1         2.4750    0.4010   -0.9630 Ca        1 MOL      1.760440
    174 O23         0.0540    2.0080   -1.2720 oh        1 MOL     -0.968586
    175 H82        -0.6990    1.6260   -1.7280 ho        1 MOL      0.455340
    176 H83        -0.1040    2.9480   -1.2800 ho        1 MOL      0.455340
    177 O24         0.8210   -1.2500   -2.2830 oh        1 MOL     -0.968586
    178 H84         1.3950   -1.5440   -2.9820 ho        1 MOL      0.455340
    179 H85        -0.0620   -1.3340   -2.6440 ho        1 MOL      0.455340
@<TRIPOS>BOND
     1    1    2 1   
     2    1    4 1   
     3    1    5 1   
     4    1    6 1   
     5    2    3 2   
     6    2    7 1   
     7    7    8 1   
     8    7   15 1   
     9    8    9 1   
    10    8   11 1   
    11    8   16 1   
    12    9   10 2   
    13    9   19 1   
    14   11   12 1   
    15   11   17 1   
    16   11   18 1   
    17   12   13 1   
    18   12   14 1   
    19   19   20 1   
    20   19   28 1   
    21   20   21 1   
    22   20   23 1   
    23   20   29 1   
    24   21   22 2   
    25   21   41 1   
    26   23   24 1   
    27   23   30 1   
    28   23   31 1   
    29   24   25 1   
    30   24   32 1   
    31   24   33 1   
    32   25   26 1   
    33   25   34 1   
    34   25   35 1   
    35   26   27 1   
    36   26   36 1   
    37   26   37 1   
    38   27   38 1   
    39   27   39 1   
    40   27   40 1   
    41   41   42 1   
    42   41   49 1   
    43   42   43 1   
    44   42   45 1   
    45   42   50 1   
    46   43   44 2   
    47   43   53 1   
    48   45   46 1   
    49   45   51 1   
    50   45   52 1   
    51   46   47 1   
    52   46   48 1   
    53   53   54 1   
    54   53   57 1   
    55   54   55 1   
    56   54   58 1   
    57   54   59 1   
    58   55   56 2   
    59   55   60 1   
    60   60   61 1   
    61   60   68 1   
    62   61   62 1   
    63   61   64 1   
    64   61   69 1   
    65   62   63 2   
    66   62   74 1   
    67   64   65 1   
    68   64   70 1   
    69   64   71 1   
    70   65   66 1   
    71   65   67 2   
    72   66   72 1   
    73   66   73 1   
    74   74   75 1   
    75   74   78 1   
    76   75   76 1   
    77   75   79 1   
    78   75   80 1   
    79   76   77 2   
    80   76   81 1   
    81   81   82 1   
    82   81   93 1   
    83   82   83 1   
    84   82   85 1   
    85   82   94 1   
    86   83   84 2   
    87   83  102 1   
    88   85   86 1   
    89   85   95 1   
    90   85   96 1   
    91   86   87 ar  
    92   86   88 ar  
    93   87   89 ar  
    94   87   97 1   
    95   88   90 ar  
    96   88   98 1   
    97   89   91 ar  
    98   89   99 1   
    99   90   91 ar  
   100   90  100 1   
   101   91   92 1   
   102   92  101 1   
   103  102  103 1   
   104  102  110 1   
   105  103  104 1   
   106  103  106 1   
   107  103  111 1   
   108  104  105 2   
   109  104  121 1   
   110  106  107 1   
   111  106  108 1   
   112  106  112 1   
   113  107  109 1   
   114  107  113 1   
   115  107  114 1   
   116  108  115 1   
   117  108  116 1   
   118  108  117 1   
   119  109  118 1   
   120  109  119 1   
   121  109  120 1   
   122  121  122 1   
   123  121  127 1   
   124  122  123 1   
   125  122  125 1   
   126  122  128 1   
   127  123  124 2   
   128  123  132 1   
   129  125  126 1   
   130  125  129 1   
   131  125  130 1   
   132  126  131 1   
   133  132  133 1   
   134  132  137 1   
   135  133  134 1   
   136  133  136 1   
   137  133  138 1   
   138  134  135 2   
   139  134  142 1   
   140  136  139 1   
   141  136  140 1   
   142  136  141 1   
   143  142  143 1   
   144  142  147 1   
   145  143  144 1   
   146  143  146 1   
   147  143  148 1   
   148  144  145 2   
   149  144  152 1   
   150  146  149 1   
   151  146  150 1   
   152  146  151 1   
   153  152  153 1   
   154  152  161 1   
   155  153  154 1   
   156  153  156 1   
   157  153  162 1   
   158  154  155 2   
   159  154  167 1   
   160  156  157 1   
   161  156  163 1   
   162  156  164 1   
   163  157  158 1   
   164  157  165 1   
   165  157  166 1   
   166  158  159 1   
   167  158  160 1   
   168  167  168 1   
   169  167  172 1   
   170  168  169 1   
   171  168  170 1   
   172  168  171 1   
   173  174  175 1   
   174  174  176 1   
   175  177  178 1   
   176  177  179 1   
@<TRIPOS>SUBSTRUCTURE
     1 MOL         1 TEMP              0 ****  ****    0 ROOT
