@<TRIPOS>MOLECULE
MOL
  179   176     1     0     0
SMALL
resp


@<TRIPOS>ATOM
      1 C1         -1.0980    5.8880    5.1980 c3        1 MOL     -0.371252
      2 C2         -0.9240    5.0380    3.9240 c         1 MOL      0.662352
      3 O1         -0.0490    5.3660    3.1180 o         1 MOL     -0.567672
      4 H1         -1.6260    6.8090    4.9490 hc        1 MOL      0.106708
      5 H2         -1.6750    5.3270    5.9340 hc        1 MOL      0.106708
      6 H3         -0.1190    6.1310    5.6100 hc        1 MOL      0.106708
      7 N1         -1.9270    4.1450    3.6580 n         1 MOL     -0.598201
      8 C3         -2.0880    3.4190    2.3660 c3        1 MOL     -0.009415
      9 C4         -2.5060    4.3640    1.3270 c         1 MOL      0.643859
     10 O2         -3.5990    4.9790    1.4950 o         1 MOL     -0.548738
     11 C5         -3.1460    2.3330    2.5930 c3        1 MOL      0.225114
     12 C6         -3.3980    1.3750    1.4510 c         1 MOL      0.494255
     13 O3         -3.8580    0.2410    1.7790 o         1 MOL     -0.714094
     14 O4         -3.0270    1.7590    0.3300 o         1 MOL     -0.714094
     15 H4         -2.5940    3.9680    4.3920 hn        1 MOL      0.331411
     16 H5         -1.1920    2.8670    2.0760 h1        1 MOL      0.028710
     17 H6         -4.0860    2.8790    2.7220 hc        1 MOL     -0.035537
     18 H7         -2.8490    1.8190    3.5060 hc        1 MOL     -0.035537
     19 N2         -1.8000    4.5160    0.1970 n         1 MOL     -0.278097
     20 C7         -2.0910    5.4210   -0.9280 c3        1 MOL     -0.183386
     21 C8         -3.4850    5.0360   -1.5670 c         1 MOL      0.524189
     22 O5         -4.0570    5.8410   -2.2550 o         1 MOL     -0.550245
     23 C9         -1.0040    5.3740   -1.9170 c3        1 MOL      0.174512
     24 C10        -0.7790    4.0360   -2.6380 c3        1 MOL     -0.187503
     25 C11         0.4520    4.0850   -3.6120 c3        1 MOL     -0.080291
     26 C12         0.7330    2.6790   -4.1380 c3        1 MOL      0.161805
     27 N3          1.7350    2.6940   -5.1870 n4        1 MOL     -0.162136
     28 H8         -0.9050    4.0330    0.2070 hn        1 MOL      0.208674
     29 H9         -2.0620    6.4450   -0.5720 h1        1 MOL      0.132099
     30 H10        -0.1590    5.7260   -1.3200 hc        1 MOL      0.013820
     31 H11        -1.1590    6.1980   -2.6110 hc        1 MOL      0.013820
     32 H12        -1.6660    3.8200   -3.2360 hc        1 MOL      0.079752
     33 H13        -0.6390    3.2800   -1.8630 hc        1 MOL      0.079752
     34 H14         1.2450    4.5390   -3.0230 hc        1 MOL      0.039275
     35 H15         0.2910    4.8150   -4.4050 hc        1 MOL      0.039275
     36 H16        -0.1080    2.1600   -4.6080 hx        1 MOL      0.025489
     37 H17         1.0740    2.0270   -3.3360 hx        1 MOL      0.025489
     38 H18         1.3650    3.3010   -5.8960 hn        1 MOL      0.220805
     39 H19         2.6320    3.0510   -4.8800 hn        1 MOL      0.220805
     40 H20         1.9680    1.8010   -5.5920 hn        1 MOL      0.220805
     41 N4         -4.0120    3.8250   -1.4240 n         1 MOL     -0.162829
     42 C13        -5.1550    3.3400   -2.1480 c3        1 MOL     -0.044135
     43 C14        -6.3050    2.7530   -1.2640 c         1 MOL      0.402349
     44 O6         -7.3910    2.3960   -1.6850 o         1 MOL     -0.522330
     45 C15        -4.7950    2.3740   -3.2980 c3        1 MOL     -0.233292
     46 C16        -4.1680    1.1470   -2.7450 c         1 MOL      0.822870
     47 O7         -4.6450    0.5730   -1.7750 o         1 MOL     -0.791180
     48 O8         -3.1700    0.6230   -3.3600 o         1 MOL     -0.791180
     49 H21        -3.4780    3.1710   -0.8560 hn        1 MOL      0.026363
     50 H22        -5.6040    4.1490   -2.7340 h1        1 MOL      0.125636
     51 H23        -4.0670    2.7750   -4.0010 hc        1 MOL      0.084581
     52 H24        -5.7150    2.1000   -3.8080 hc        1 MOL      0.084581
     53 N5         -6.0300    2.7330    0.0480 n         1 MOL     -0.151579
     54 C17        -6.8660    2.0680    1.1860 c3        1 MOL     -0.166245
     55 C18        -7.2500    0.6510    1.0080 c         1 MOL      0.690013
     56 O9         -8.1400    0.2560    1.6980 o         1 MOL     -0.566777
     57 H25        -5.0970    3.0660    0.2280 hn        1 MOL      0.122361
     58 H26        -7.7640    2.6840    1.2070 h1        1 MOL      0.107027
     59 H27        -6.3680    2.1610    2.1550 h1        1 MOL      0.107027
     60 N6         -6.6880   -0.1410    0.0260 n         1 MOL     -0.522104
     61 C19        -7.1330   -1.5170   -0.1800 c3        1 MOL      0.093661
     62 C20        -6.0190   -2.5290   -0.4340 c         1 MOL      0.546509
     63 O10        -4.8580   -2.1770   -0.4520 o         1 MOL     -0.549765
     64 C21        -8.1860   -1.5760   -1.2700 c3        1 MOL     -0.362106
     65 C22        -7.5850   -1.3110   -2.6620 c         1 MOL      0.634874
     66 N7         -7.5220   -0.0500   -3.0430 n         1 MOL     -0.773063
     67 O11        -7.0130   -2.2060   -3.3080 o         1 MOL     -0.570910
     68 H28        -5.8800    0.1990   -0.4800 hn        1 MOL      0.468544
     69 H29        -7.7140   -1.9480    0.6280 h1        1 MOL      0.083533
     70 H30        -8.9670   -0.8940   -0.9440 hc        1 MOL      0.109550
     71 H31        -8.5940   -2.5900   -1.2170 hc        1 MOL      0.109550
     72 H32        -7.4640    0.6910   -2.3590 hn        1 MOL      0.363234
     73 H33        -7.3030    0.1190   -4.0210 hn        1 MOL      0.363234
     74 N8         -6.3490   -3.7500   -0.7030 n         1 MOL     -0.507368
     75 C23        -5.4070   -4.8100   -1.1260 c3        1 MOL     -0.022650
     76 C24        -4.4920   -5.0950    0.0360 c         1 MOL      0.482631
     77 O12        -4.8540   -4.9040    1.2350 o         1 MOL     -0.474670
     78 H34        -7.3330   -3.9610   -0.7870 hn        1 MOL      0.341480
     79 H35        -4.8960   -4.5110   -2.0400 h1        1 MOL      0.101461
     80 H36        -5.9510   -5.6790   -1.4820 h1        1 MOL      0.101461
     81 N9         -3.2030   -5.4960   -0.2660 n         1 MOL     -0.508631
     82 C25        -2.1430   -5.3700    0.8300 c3        1 MOL      0.096272
     83 C26        -2.0160   -3.9450    1.3980 c         1 MOL      0.432066
     84 O13        -2.5040   -2.9610    0.8280 o         1 MOL     -0.442913
     85 C27        -0.8100   -5.8940    0.3220 c3        1 MOL     -0.083351
     86 C28        -0.2690   -4.9400   -0.7080 ca        1 MOL      0.086604
     87 C29        -0.3570   -5.1970   -2.1070 ca        1 MOL     -0.197499
     88 C30         0.4980   -3.8400   -0.2780 ca        1 MOL     -0.197499
     89 C31         0.2600   -4.3390   -3.0040 ca        1 MOL     -0.169247
     90 C32         1.2650   -3.1460   -1.1800 ca        1 MOL     -0.169247
     91 C33         1.1170   -3.2900   -2.5880 ca        1 MOL      0.332595
     92 O14         1.7930   -2.6780   -3.5620 oh        1 MOL     -0.519611
     93 H37        -2.9590   -5.4860   -1.2510 hn        1 MOL      0.259222
     94 H38        -2.4450   -6.1080    1.5630 h1        1 MOL      0.081935
     95 H39        -0.9180   -6.9010   -0.0690 hc        1 MOL      0.049789
     96 H40        -0.2150   -5.9570    1.2350 hc        1 MOL      0.049789
     97 H41        -0.8320   -6.1030   -2.4500 ha        1 MOL      0.137404
     98 H42         0.6760   -3.7230    0.7810 ha        1 MOL      0.137404
     99 H43         0.1870   -4.5480   -4.0670 ha        1 MOL      0.119151
    100 H44         1.8890   -2.3020   -0.9430 ha        1 MOL      0.119151
    101 H45         2.3590   -1.9850   -3.2050 ho        1 MOL      0.396838
    102 N10        -1.2270   -3.7840    2.4410 n         1 MOL     -0.403455
    103 C34        -0.8390   -2.5160    3.0540 c3        1 MOL      0.048926
    104 C35        -0.2800   -1.4630    2.0830 c         1 MOL     -0.043650
    105 O15        -0.9620   -0.7400    1.3730 o         1 MOL     -0.251745
    106 C36        -1.9080   -1.9710    4.0670 c3        1 MOL      0.098831
    107 C37        -1.4070   -0.6000    4.4910 c3        1 MOL      0.287676
    108 C38        -2.1240   -2.9480    5.2270 c3        1 MOL     -0.315284
    109 C39        -2.5060    0.0600    5.4050 c3        1 MOL     -0.050139
    110 H46        -0.9030   -4.6390    2.8760 hn        1 MOL      0.300720
    111 H47         0.0040   -2.7270    3.7100 h1        1 MOL      0.070179
    112 H48        -2.8220   -1.7940    3.4930 hc        1 MOL      0.095403
    113 H49        -1.1860    0.1250    3.7010 hc        1 MOL     -0.092801
    114 H50        -0.4970   -0.7540    5.0690 hc        1 MOL     -0.092801
    115 H51        -3.1550   -3.0700    5.5300 hc        1 MOL      0.082783
    116 H52        -1.6880   -3.9380    5.0770 hc        1 MOL      0.082783
    117 H53        -1.6580   -2.4800    6.0920 hc        1 MOL      0.082783
    118 H54        -3.4310    0.0560    4.8340 hc        1 MOL      0.000852
    119 H55        -2.6020   -0.4310    6.3800 hc        1 MOL      0.000852
    120 H56        -2.1930    1.0930    5.5810 hc        1 MOL      0.000852
    121 N11         1.0400   -1.2640    2.1660 n         1 MOL     -0.234659
    122 C40         1.6970    0.0240    1.9600 c3        1 MOL     -0.127635
    123 C41         3.1770   -0.0730    1.4240 c         1 MOL      0.700797
    124 O16         3.5410    0.7880    0.6130 o         1 MOL     -0.603460
    125 C42         1.7540    0.8510    3.2510 c3        1 MOL      0.218165
    126 O17         2.3960    0.1840    4.3240 oh        1 MOL     -0.647581
    127 H57         1.4840   -1.8950    2.8130 hn        1 MOL      0.292017
    128 H58         1.2420    0.6310    1.1700 h1        1 MOL      0.141441
    129 H59         0.7530    1.0410    3.6320 h1        1 MOL      0.018479
    130 H60         2.1930    1.8080    2.9620 h1        1 MOL      0.018479
    131 H61         2.3270    0.7000    5.1340 ho        1 MOL      0.440277
    132 N12         3.9040   -1.2120    1.5070 n         1 MOL     -0.565126
    133 C43         5.3080   -1.3530    1.0020 c3        1 MOL      0.273788
    134 C44         5.4090   -1.7550   -0.4770 c         1 MOL      0.594200
    135 O18         4.4740   -2.4410   -0.9090 o         1 MOL     -0.578494
    136 C45         6.0420   -2.3360    1.9450 c3        1 MOL     -0.417876
    137 H62         3.4930   -2.0880    1.7900 hn        1 MOL      0.290143
    138 H63         5.9360   -0.4660    1.0540 h1        1 MOL      0.065376
    139 H64         6.9890   -2.5410    1.4540 hc        1 MOL      0.118153
    140 H65         6.1430   -1.7890    2.8860 hc        1 MOL      0.118153
    141 H66         5.5360   -3.2910    2.0550 hc        1 MOL      0.118153
    142 N13         6.4010   -1.4140   -1.3730 n         1 MOL     -0.709497
    143 C46         7.4830   -0.3930   -1.3270 c3        1 MOL      0.555307
    144 C47         8.8390   -0.7640   -2.0900 c         1 MOL      0.254251
    145 O19         8.8240   -1.4700   -3.1260 o         1 MOL     -0.504594
    146 C48         6.9060    0.8890   -1.8620 c3        1 MOL     -0.261304
    147 H67         6.2660   -1.9160   -2.2400 hn        1 MOL      0.340994
    148 H68         7.7930   -0.3310   -0.2810 h1        1 MOL     -0.130529
    149 H69         7.2910    1.1050   -2.8590 hc        1 MOL      0.058427
    150 H70         5.8140    0.9420   -1.9490 hc        1 MOL      0.058427
    151 H71         7.3600    1.6470   -1.2220 hc        1 MOL      0.058427
    152 N14         9.9230   -0.2380   -1.5510 n         1 MOL     -0.159939
    153 C49         9.9980    0.8090   -0.5140 c3        1 MOL     -0.232011
    154 C50         9.9060    0.3320    0.9470 c         1 MOL      0.723691
    155 O20         9.5460    1.2200    1.7230 o         1 MOL     -0.589448
    156 C51        11.3770    1.4090   -0.5750 c3        1 MOL     -0.104680
    157 C52        12.6860    0.5850   -0.4950 c3        1 MOL     -0.360901
    158 C53        13.9580    1.3800   -0.9380 c         1 MOL      0.803103
    159 O21        13.9130    2.1450   -1.9290 o         1 MOL     -0.659046
    160 O22        15.0190    1.2780   -0.3180 o         1 MOL     -0.659046
    161 H72        10.7910   -0.6470   -1.8720 hn        1 MOL      0.256389
    162 H73         9.2640    1.6050   -0.6380 h1        1 MOL      0.132966
    163 H74        11.4000    2.1470    0.2230 hc        1 MOL      0.080012
    164 H75        11.3920    2.0180   -1.4740 hc        1 MOL      0.080012
    165 H76        12.6740   -0.3310   -1.0870 hc        1 MOL      0.075264
    166 H77        12.8190    0.3450    0.5540 hc        1 MOL      0.075264
    167 N15        10.1380   -0.9570    1.2240 n         1 MOL     -0.342048
    168 C54        10.1320   -1.4940    2.6200 c3        1 MOL     -0.183183
    169 H78        10.4750   -2.5280    2.6120 h1        1 MOL      0.104171
    170 H79        10.7970   -0.8950    3.2430 h1        1 MOL      0.104171
    171 H80         9.1200   -1.4500    3.0220 h1        1 MOL      0.104171
    172 H81        10.0790   -1.5560    0.4100 hn        1 MOL      0.221244
    173 Ca1        -2.6670   -0.6310   -0.6030 Ca        1 MOL      1.798488
    174 O23        -2.2520   -2.7520   -2.5620 oh        1 MOL     -0.937553
    175 H82        -1.6820   -3.3570   -3.0330 ho        1 MOL      0.432609
    176 H83        -3.0750   -2.7690   -3.0530 ho        1 MOL      0.432609
    177 O24        -0.1910    0.5810   -1.0800 oh        1 MOL     -0.937553
    178 H84         0.1820    0.4260   -1.9480 ho        1 MOL      0.432609
    179 H85         0.3950    1.2150   -0.6750 ho        1 MOL      0.432609
@<TRIPOS>BOND
     1    1    2 1   
     2    1    4 1   
     3    1    5 1   
     4    1    6 1   
     5    2    3 2   
     6    2    7 1   
     7    7    8 1   
     8    7   15 1   
     9    8    9 1   
    10    8   11 1   
    11    8   16 1   
    12    9   10 2   
    13    9   19 1   
    14   11   12 1   
    15   11   17 1   
    16   11   18 1   
    17   12   13 1   
    18   12   14 1   
    19   19   20 1   
    20   19   28 1   
    21   20   21 1   
    22   20   23 1   
    23   20   29 1   
    24   21   22 2   
    25   21   41 1   
    26   23   24 1   
    27   23   30 1   
    28   23   31 1   
    29   24   25 1   
    30   24   32 1   
    31   24   33 1   
    32   25   26 1   
    33   25   34 1   
    34   25   35 1   
    35   26   27 1   
    36   26   36 1   
    37   26   37 1   
    38   27   38 1   
    39   27   39 1   
    40   27   40 1   
    41   41   42 1   
    42   41   49 1   
    43   42   43 1   
    44   42   45 1   
    45   42   50 1   
    46   43   44 2   
    47   43   53 1   
    48   45   46 1   
    49   45   51 1   
    50   45   52 1   
    51   46   47 1   
    52   46   48 1   
    53   53   54 1   
    54   53   57 1   
    55   54   55 1   
    56   54   58 1   
    57   54   59 1   
    58   55   56 2   
    59   55   60 1   
    60   60   61 1   
    61   60   68 1   
    62   61   62 1   
    63   61   64 1   
    64   61   69 1   
    65   62   63 2   
    66   62   74 1   
    67   64   65 1   
    68   64   70 1   
    69   64   71 1   
    70   65   66 1   
    71   65   67 2   
    72   66   72 1   
    73   66   73 1   
    74   74   75 1   
    75   74   78 1   
    76   75   76 1   
    77   75   79 1   
    78   75   80 1   
    79   76   77 2   
    80   76   81 1   
    81   81   82 1   
    82   81   93 1   
    83   82   83 1   
    84   82   85 1   
    85   82   94 1   
    86   83   84 2   
    87   83  102 1   
    88   85   86 1   
    89   85   95 1   
    90   85   96 1   
    91   86   87 ar  
    92   86   88 ar  
    93   87   89 ar  
    94   87   97 1   
    95   88   90 ar  
    96   88   98 1   
    97   89   91 ar  
    98   89   99 1   
    99   90   91 ar  
   100   90  100 1   
   101   91   92 1   
   102   92  101 1   
   103  102  103 1   
   104  102  110 1   
   105  103  104 1   
   106  103  106 1   
   107  103  111 1   
   108  104  105 2   
   109  104  121 1   
   110  106  107 1   
   111  106  108 1   
   112  106  112 1   
   113  107  109 1   
   114  107  113 1   
   115  107  114 1   
   116  108  115 1   
   117  108  116 1   
   118  108  117 1   
   119  109  118 1   
   120  109  119 1   
   121  109  120 1   
   122  121  122 1   
   123  121  127 1   
   124  122  123 1   
   125  122  125 1   
   126  122  128 1   
   127  123  124 2   
   128  123  132 1   
   129  125  126 1   
   130  125  129 1   
   131  125  130 1   
   132  126  131 1   
   133  132  133 1   
   134  132  137 1   
   135  133  134 1   
   136  133  136 1   
   137  133  138 1   
   138  134  135 2   
   139  134  142 1   
   140  136  139 1   
   141  136  140 1   
   142  136  141 1   
   143  142  143 1   
   144  142  147 1   
   145  143  144 1   
   146  143  146 1   
   147  143  148 1   
   148  144  145 2   
   149  144  152 1   
   150  146  149 1   
   151  146  150 1   
   152  146  151 1   
   153  152  153 1   
   154  152  161 1   
   155  153  154 1   
   156  153  156 1   
   157  153  162 1   
   158  154  155 2   
   159  154  167 1   
   160  156  157 1   
   161  156  163 1   
   162  156  164 1   
   163  157  158 1   
   164  157  165 1   
   165  157  166 1   
   166  158  159 1   
   167  158  160 1   
   168  167  168 1   
   169  167  172 1   
   170  168  169 1   
   171  168  170 1   
   172  168  171 1   
   173  174  175 1   
   174  174  176 1   
   175  177  178 1   
   176  177  179 1   
@<TRIPOS>SUBSTRUCTURE
     1 MOL         1 TEMP              0 ****  ****    0 ROOT
