@<TRIPOS>MOLECULE
MOL
  189   185     1     0     0
SMALL
resp


@<TRIPOS>ATOM
      1 C1          4.9270    4.5340   -3.0700 c3        1 MOL     -0.377662
      2 C2          5.5700    3.8310   -1.9150 c         1 MOL      0.725513
      3 O1          4.8560    3.4930   -0.9250 o         1 MOL     -0.582626
      4 H1          4.1660    5.2210   -2.6980 hc        1 MOL      0.098450
      5 H2          5.6820    5.0930   -3.6220 hc        1 MOL      0.098450
      6 H3          4.4630    3.8010   -3.7290 hc        1 MOL      0.098450
      7 N1          6.8550    3.3810   -2.0610 n         1 MOL     -0.717043
      8 C3          7.4670    2.1640   -1.4060 c3        1 MOL      0.420659
      9 C4          6.5550    0.9320   -1.4390 c         1 MOL      0.336418
     10 O2          6.0560    0.5220   -0.3920 o         1 MOL     -0.432452
     11 C5          8.1530    2.4270   -0.0730 c3        1 MOL     -0.326337
     12 C6          7.4910    3.3870    0.9630 c         1 MOL      0.814310
     13 O3          6.6630    2.8430    1.7090 o         1 MOL     -0.733141
     14 O4          7.8830    4.5980    1.1400 o         1 MOL     -0.733141
     15 H4          7.4060    3.7080   -2.8350 hn        1 MOL      0.329951
     16 H5          8.2920    1.8780   -2.0610 h1        1 MOL     -0.018532
     17 H6          9.1540    2.8420   -0.2560 hc        1 MOL      0.040842
     18 H7          8.1940    1.4190    0.3380 hc        1 MOL      0.040842
     19 N2          6.3180    0.4030   -2.6690 n         1 MOL     -0.551013
     20 C7          5.4170   -0.7300   -3.0280 c3        1 MOL      0.270367
     21 C8          6.0100   -2.0940   -2.4580 c         1 MOL      0.309189
     22 O5          6.4190   -2.9730   -3.2280 o         1 MOL     -0.549445
     23 C9          3.8740   -0.4600   -2.7400 c3        1 MOL      0.087213
     24 C10         2.9810   -1.4820   -3.3010 c3        1 MOL      0.102926
     25 C11         3.4310    0.8990   -3.2700 c3        1 MOL     -0.167194
     26 C12         3.0070   -1.6520   -4.7990 c3        1 MOL     -0.431384
     27 H8          6.6770    0.9540   -3.4460 hn        1 MOL      0.282150
     28 H9          5.5070   -0.8060   -4.1140 h1        1 MOL      0.004783
     29 H10         3.6840   -0.3680   -1.6790 hc        1 MOL     -0.078699
     30 H11         1.9700   -1.2040   -3.0350 hc        1 MOL      0.034904
     31 H12         3.2060   -2.4520   -2.8440 hc        1 MOL      0.034904
     32 H13         3.5880    1.5800   -2.4240 hc        1 MOL      0.023982
     33 H14         3.9090    1.1700   -4.2060 hc        1 MOL      0.023982
     34 H15         2.3530    0.9350   -3.4200 hc        1 MOL      0.023982
     35 H16         2.2900   -2.4180   -5.0940 hc        1 MOL      0.095514
     36 H17         2.5380   -0.7290   -5.1400 hc        1 MOL      0.095514
     37 H18         3.9450   -1.9740   -5.2340 hc        1 MOL      0.095514
     38 N3          5.9340   -2.2650   -1.1310 n         1 MOL     -0.052071
     39 C13         6.3440   -3.5310   -0.4990 c3        1 MOL      0.126589
     40 C14         5.3130   -4.7220   -0.6740 c         1 MOL      0.527986
     41 O6          5.6840   -5.8100   -1.1580 o         1 MOL     -0.578919
     42 C15         6.8610   -3.1910    0.9190 c3        1 MOL     -0.309149
     43 C16         7.3820   -4.4720    1.4670 c         1 MOL      0.752513
     44 O7          8.5990   -4.8020    1.3200 o         1 MOL     -0.726746
     45 O8          6.5550   -5.1590    2.0490 o         1 MOL     -0.726746
     46 H19         5.9170   -1.4310   -0.5510 hn        1 MOL      0.169862
     47 H20         7.2770   -3.8190   -0.9760 h1        1 MOL      0.023213
     48 H21         6.1370   -2.6310    1.5090 hc        1 MOL      0.056620
     49 H22         7.6500   -2.4800    0.6850 hc        1 MOL      0.056620
     50 N4          4.0530   -4.7490   -0.2450 n         1 MOL     -0.434697
     51 C17         3.2820   -3.6110    0.2930 c3        1 MOL      0.024299
     52 C18         2.0770   -4.0550    1.1680 c         1 MOL      0.730697
     53 O9          1.4440   -4.9950    0.7240 o         1 MOL     -0.639926
     54 H23         3.5520   -5.6230   -0.2040 hn        1 MOL      0.293355
     55 H24         2.9100   -2.9840   -0.5080 h1        1 MOL      0.019170
     56 H25         3.8860   -2.9230    0.8780 h1        1 MOL      0.019170
     57 N5          1.6090   -3.4370    2.2010 n         1 MOL     -0.723611
     58 C19         2.1880   -2.2040    2.7930 c3        1 MOL      0.554419
     59 C20         2.4660   -1.0920    1.7620 c         1 MOL      0.194523
     60 O10         3.6210   -0.5640    1.5370 o         1 MOL     -0.560041
     61 C21         3.4280   -2.5820    3.6030 c3        1 MOL     -0.419057
     62 C22         3.8620   -1.4780    4.5630 c         1 MOL      0.708022
     63 O11         3.1600   -0.4590    4.7900 o         1 MOL     -0.693931
     64 O12         4.9750   -1.6370    5.1710 o         1 MOL     -0.693931
     65 H26         0.7020   -3.7470    2.5350 hn        1 MOL      0.327445
     66 H27         1.4360   -1.8430    3.4880 h1        1 MOL      0.013958
     67 H28         4.2300   -3.0090    2.9840 hc        1 MOL      0.109939
     68 H29         3.1040   -3.3400    4.3060 hc        1 MOL      0.109939
     69 N6          1.5150   -0.7420    0.8660 n         1 MOL     -0.235435
     70 C23         0.0920   -1.0840    0.7710 c3        1 MOL      0.071161
     71 C24        -0.2410   -2.2440   -0.1330 c         1 MOL      0.433061
     72 O13         0.5000   -2.6670   -0.9520 o         1 MOL     -0.509355
     73 H30         1.7980   -0.0680    0.1670 hn        1 MOL      0.233898
     74 H31        -0.5710   -0.2740    0.4820 h1        1 MOL      0.018395
     75 H32        -0.2270   -1.2680    1.8060 h1        1 MOL      0.018395
     76 N7         -1.4010   -2.8800    0.0590 n         1 MOL     -0.448771
     77 C25        -1.9010   -4.0810   -0.7240 c3        1 MOL      0.191557
     78 C26        -2.7610   -3.6410   -2.0630 c         1 MOL      0.313684
     79 O14        -2.7900   -4.4380   -2.9960 o         1 MOL     -0.502216
     80 C27        -2.6870   -5.0290    0.1640 c3        1 MOL      0.009225
     81 C28        -4.2700   -4.8520    0.1840 c3        1 MOL     -0.229017
     82 C29        -4.7290   -3.6530    0.9920 c         1 MOL      0.522710
     83 N8         -4.9340   -3.8460    2.2660 n         1 MOL     -0.680721
     84 O15        -5.0640   -2.5520    0.4950 o         1 MOL     -0.492592
     85 H33        -1.9290   -2.4910    0.8290 hn        1 MOL      0.262240
     86 H34        -1.0160   -4.6540   -0.9900 h1        1 MOL      0.127675
     87 H35        -2.3620   -4.8990    1.1940 hc        1 MOL      0.006761
     88 H36        -2.4600   -5.9670   -0.3470 hc        1 MOL      0.006761
     89 H37        -4.7980   -5.7050    0.6140 hc        1 MOL      0.100352
     90 H38        -4.5100   -4.6900   -0.8690 hc        1 MOL      0.100352
     91 H39        -4.6610   -4.7360    2.6400 hn        1 MOL      0.362114
     92 H40        -5.3410   -3.1280    2.8550 hn        1 MOL      0.362114
     93 N9         -3.3270   -2.4290   -2.1390 n         1 MOL     -0.136768
     94 C30        -3.7890   -1.7770   -3.3630 c3        1 MOL     -0.054633
     95 C31        -5.2270   -1.1910   -3.2670 c         1 MOL      0.325739
     96 O16        -5.7700   -0.5610   -4.2100 o         1 MOL     -0.518831
     97 C32        -2.7580   -0.8270   -3.8760 c3        1 MOL      0.114245
     98 C33        -1.3390   -1.4960   -4.0040 c3        1 MOL     -0.205213
     99 C34        -2.6050    0.4260   -3.0730 c3        1 MOL     -0.205213
    100 H41        -3.2540   -1.7660   -1.3760 hn        1 MOL      0.171259
    101 H42        -3.9100   -2.5010   -4.1660 h1        1 MOL      0.111846
    102 H43        -3.0790   -0.5330   -4.8800 hc        1 MOL      0.024564
    103 H44        -0.5600   -1.0270   -4.6020 hc        1 MOL      0.055729
    104 H45        -0.9270   -1.6650   -3.0140 hc        1 MOL      0.055729
    105 H46        -1.3610   -2.5060   -4.4280 hc        1 MOL      0.055729
    106 H47        -2.0010    0.2850   -2.1820 hc        1 MOL      0.055729
    107 H48        -2.2230    1.2330   -3.6980 hc        1 MOL      0.055729
    108 H49        -3.5510    0.7620   -2.6430 hc        1 MOL      0.055729
    109 N10        -5.8890   -1.3340   -2.0870 n         1 MOL     -0.059190
    110 C35        -7.1700   -0.7100   -1.8220 c3        1 MOL     -0.060630
    111 C36        -7.0610    0.5530   -0.9630 c         1 MOL      0.678601
    112 O17        -8.0270    1.3130   -1.0050 o         1 MOL     -0.590734
    113 C37        -8.0990   -1.6460   -1.0590 c3        1 MOL     -0.369875
    114 C38        -8.5410   -2.8960   -1.7200 c         1 MOL      0.650941
    115 N11        -8.7550   -2.9990   -3.0030 n         1 MOL     -0.739270
    116 O18        -8.7570   -3.9080   -1.0900 o         1 MOL     -0.582708
    117 H50        -5.4360   -1.8360   -1.3300 hn        1 MOL      0.021751
    118 H51        -7.6400   -0.3770   -2.7470 h1        1 MOL      0.076071
    119 H52        -9.0400   -1.1750   -0.7910 hc        1 MOL      0.166390
    120 H53        -7.5910   -1.9460   -0.1430 hc        1 MOL      0.166390
    121 H54        -8.6820   -2.1760   -3.5960 hn        1 MOL      0.345930
    122 H55        -9.2850   -3.7950   -3.3280 hn        1 MOL      0.345930
    123 N12        -5.9560    0.7770   -0.2310 n         1 MOL     -0.618086
    124 C39        -5.8070    1.8020    0.8440 c3        1 MOL      0.488030
    125 C40        -4.5850    2.6280    0.6340 c         1 MOL      0.299046
    126 O19        -3.7630    2.2370   -0.1610 o         1 MOL     -0.425807
    127 C41        -5.9810    1.2510    2.2230 c3        1 MOL     -0.041122
    128 C42        -7.3260    0.6750    2.4970 ca        1 MOL      0.059722
    129 C43        -8.3420    1.5650    2.9580 ca        1 MOL     -0.182344
    130 C44        -7.6570   -0.6490    2.2600 ca        1 MOL     -0.182344
    131 C45        -9.6610    1.1040    3.1240 ca        1 MOL     -0.244707
    132 C46        -8.9250   -1.1080    2.3070 ca        1 MOL     -0.244707
    133 C47        -9.9480   -0.2160    2.8140 ca        1 MOL      0.322122
    134 O20       -11.2130   -0.6870    2.9530 oh        1 MOL     -0.492473
    135 H56        -5.2560    0.0580   -0.3190 hn        1 MOL      0.312190
    136 H57        -6.6390    2.4970    0.7610 h1        1 MOL     -0.050629
    137 H58        -5.8480    1.9690    3.0330 hc        1 MOL      0.010022
    138 H59        -5.2570    0.4530    2.3840 hc        1 MOL      0.010022
    139 H60        -8.1070    2.5870    3.2290 ha        1 MOL      0.125803
    140 H61        -6.8540   -1.3530    2.1110 ha        1 MOL      0.125803
    141 H62       -10.4310    1.7690    3.4790 ha        1 MOL      0.128966
    142 H63        -9.0730   -2.1640    2.1030 ha        1 MOL      0.128966
    143 H64       -11.7960    0.0270    3.2160 ho        1 MOL      0.355114
    144 N13        -4.3670    3.6710    1.4630 n         1 MOL     -0.477536
    145 C48        -3.2150    4.4820    1.8440 c3        1 MOL      0.013371
    146 C49        -2.2040    5.0190    0.7530 c         1 MOL      0.424768
    147 O21        -1.6040    6.0190    1.0410 o         1 MOL     -0.544495
    148 C50        -2.4520    3.7640    2.9450 c3        1 MOL      0.156578
    149 C51        -1.7030    2.4010    2.6530 c3        1 MOL     -0.547269
    150 C52        -0.9120    1.8000    3.8600 c         1 MOL      0.804811
    151 O22         0.1990    2.2640    4.1720 o         1 MOL     -0.714229
    152 O23        -1.3540    0.8570    4.4990 o         1 MOL     -0.714229
    153 H65        -5.1210    3.8170    2.1110 hn        1 MOL      0.274253
    154 H66        -3.6290    5.3490    2.3640 h1        1 MOL      0.043106
    155 H67        -2.9940    3.6640    3.8860 hc        1 MOL      0.021927
    156 H68        -1.7190    4.4830    3.3280 hc        1 MOL      0.021927
    157 H69        -1.0050    2.6540    1.8540 hc        1 MOL      0.107621
    158 H70        -2.3210    1.6570    2.1390 hc        1 MOL      0.107621
    159 N14        -1.9810    4.3770   -0.3930 n         1 MOL     -0.103947
    160 C53        -0.8720    4.6930   -1.2330 c3        1 MOL     -0.208599
    161 C54        -1.3430    5.6210   -2.3880 c         1 MOL      0.483009
    162 O24        -0.5730    5.9120   -3.2980 o         1 MOL     -0.536523
    163 C55        -0.2470    3.4480   -1.8460 c3        1 MOL     -0.037132
    164 C56         0.0640    2.3180   -0.8050 c3        1 MOL      0.408711
    165 C57         1.3470    2.6300   -0.0540 c         1 MOL      0.528314
    166 O25         1.4100    3.5460    0.7910 o         1 MOL     -0.613955
    167 O26         2.2940    1.7850   -0.0770 o         1 MOL     -0.613955
    168 H71        -2.7020    3.7320   -0.6910 hn        1 MOL      0.154220
    169 H72        -0.0710    5.1490   -0.6590 h1        1 MOL      0.161589
    170 H73         0.6640    3.6180   -2.4080 hc        1 MOL      0.005729
    171 H74        -1.0870    3.0990   -2.4530 hc        1 MOL      0.005729
    172 H75         0.0830    1.4460   -1.4520 hc        1 MOL     -0.102973
    173 H76        -0.7720    2.0800   -0.1530 hc        1 MOL     -0.102973
    174 N15        -2.6160    6.0440   -2.5000 n         1 MOL     -0.223700
    175 C58        -3.1660    6.9580   -3.4480 c3        1 MOL     -0.179268
    176 H77        -3.9310    7.5660   -2.9640 h1        1 MOL      0.079669
    177 H78        -2.3770    7.6040   -3.8310 h1        1 MOL      0.079669
    178 H79        -3.6130    6.4020   -4.2720 h1        1 MOL      0.079669
    179 H80        -3.1390    5.9160   -1.6480 hn        1 MOL      0.196352
    180 Ca1         4.4150    1.8670    1.1400 Ca        1 MOL      1.684246
    181 O27         5.6330    0.5240    3.2810 oh        1 MOL     -0.859213
    182 H81         5.2410    0.2640    4.1040 ho        1 MOL      0.411496
    183 H82         6.4020   -0.0450    3.1930 ho        1 MOL      0.411496
    184 O28         2.8830    1.9680    3.2500 oh        1 MOL     -0.859213
    185 H83         2.8350    1.1040    3.6740 ho        1 MOL      0.411496
    186 H84         2.0040    2.3310    3.3520 ho        1 MOL      0.411496
    187 O29         3.8740    4.3930    1.4320 oh        1 MOL     -0.859213
    188 H85         3.9500    5.3190    1.6440 ho        1 MOL      0.411496
    189 H86         2.9410    4.2710    1.2520 ho        1 MOL      0.411496
@<TRIPOS>BOND
     1    1    2 1   
     2    1    4 1   
     3    1    5 1   
     4    1    6 1   
     5    2    3 2   
     6    2    7 1   
     7    7    8 1   
     8    7   15 1   
     9    8    9 1   
    10    8   11 1   
    11    8   16 1   
    12    9   10 2   
    13    9   19 1   
    14   11   12 1   
    15   11   17 1   
    16   11   18 1   
    17   12   13 1   
    18   12   14 1   
    19   19   20 1   
    20   19   27 1   
    21   20   21 1   
    22   20   23 1   
    23   20   28 1   
    24   21   22 2   
    25   21   38 1   
    26   23   24 1   
    27   23   25 1   
    28   23   29 1   
    29   24   26 1   
    30   24   30 1   
    31   24   31 1   
    32   25   32 1   
    33   25   33 1   
    34   25   34 1   
    35   26   35 1   
    36   26   36 1   
    37   26   37 1   
    38   38   39 1   
    39   38   46 1   
    40   39   40 1   
    41   39   42 1   
    42   39   47 1   
    43   40   41 2   
    44   40   50 1   
    45   42   43 1   
    46   42   48 1   
    47   42   49 1   
    48   43   44 1   
    49   43   45 1   
    50   50   51 1   
    51   50   54 1   
    52   51   52 1   
    53   51   55 1   
    54   51   56 1   
    55   52   53 2   
    56   52   57 1   
    57   57   58 1   
    58   57   65 1   
    59   58   59 1   
    60   58   61 1   
    61   58   66 1   
    62   59   60 2   
    63   59   69 1   
    64   61   62 1   
    65   61   67 1   
    66   61   68 1   
    67   62   63 1   
    68   62   64 1   
    69   69   70 1   
    70   69   73 1   
    71   70   71 1   
    72   70   74 1   
    73   70   75 1   
    74   71   72 2   
    75   71   76 1   
    76   76   77 1   
    77   76   85 1   
    78   77   78 1   
    79   77   80 1   
    80   77   86 1   
    81   78   79 2   
    82   78   93 1   
    83   80   81 1   
    84   80   87 1   
    85   80   88 1   
    86   81   82 1   
    87   81   89 1   
    88   81   90 1   
    89   82   83 1   
    90   82   84 2   
    91   83   91 1   
    92   83   92 1   
    93   93   94 1   
    94   93  100 1   
    95   94   95 1   
    96   94   97 1   
    97   94  101 1   
    98   95   96 2   
    99   95  109 1   
   100   97   98 1   
   101   97   99 1   
   102   97  102 1   
   103   98  103 1   
   104   98  104 1   
   105   98  105 1   
   106   99  106 1   
   107   99  107 1   
   108   99  108 1   
   109  109  110 1   
   110  109  117 1   
   111  110  111 1   
   112  110  113 1   
   113  110  118 1   
   114  111  112 2   
   115  111  123 1   
   116  113  114 1   
   117  113  119 1   
   118  113  120 1   
   119  114  115 1   
   120  114  116 2   
   121  115  121 1   
   122  115  122 1   
   123  123  124 1   
   124  123  135 1   
   125  124  125 1   
   126  124  127 1   
   127  124  136 1   
   128  125  126 2   
   129  125  144 1   
   130  127  128 1   
   131  127  137 1   
   132  127  138 1   
   133  128  129 ar  
   134  128  130 ar  
   135  129  131 ar  
   136  129  139 1   
   137  130  132 ar  
   138  130  140 1   
   139  131  133 ar  
   140  131  141 1   
   141  132  133 ar  
   142  132  142 1   
   143  133  134 1   
   144  134  143 1   
   145  144  145 1   
   146  144  153 1   
   147  145  146 1   
   148  145  148 1   
   149  145  154 1   
   150  146  147 2   
   151  146  159 1   
   152  148  149 1   
   153  148  155 1   
   154  148  156 1   
   155  149  150 1   
   156  149  157 1   
   157  149  158 1   
   158  150  151 1   
   159  150  152 1   
   160  159  160 1   
   161  159  168 1   
   162  160  161 1   
   163  160  163 1   
   164  160  169 1   
   165  161  162 2   
   166  161  174 1   
   167  163  164 1   
   168  163  170 1   
   169  163  171 1   
   170  164  165 1   
   171  164  172 1   
   172  164  173 1   
   173  165  166 1   
   174  165  167 1   
   175  174  175 1   
   176  174  179 1   
   177  175  176 1   
   178  175  177 1   
   179  175  178 1   
   180  181  182 1   
   181  181  183 1   
   182  184  185 1   
   183  184  186 1   
   184  187  188 1   
   185  187  189 1   
@<TRIPOS>SUBSTRUCTURE
     1 MOL         1 TEMP              0 ****  ****    0 ROOT
