@<TRIPOS>MOLECULE
MOL
  195   189     1     0     0
SMALL
resp


@<TRIPOS>ATOM
      1 C1          0.7400    3.7970    3.0500 c3        1 MOL     -0.410843
      2 C2         -0.0190    4.0330    1.7360 c         1 MOL      0.872020
      3 O1         -0.5870    3.0520    1.2510 o         1 MOL     -0.580538
      4 H1          1.0900    2.7650    3.0860 hc        1 MOL      0.094289
      5 H2          1.5940    4.4720    3.1040 hc        1 MOL      0.094289
      6 H3          0.0750    3.9840    3.8930 hc        1 MOL      0.094289
      7 N1         -0.0120    5.2690    1.1330 n         1 MOL     -0.716491
      8 C3         -0.7260    5.5090   -0.1400 c3        1 MOL     -0.011653
      9 C4         -2.2350    5.0740   -0.1330 c         1 MOL      0.599367
     10 O2         -2.6640    4.7300   -1.2590 o         1 MOL     -0.507755
     11 C5          0.0830    4.9910   -1.3460 c3        1 MOL     -0.326302
     12 C6          1.5590    5.3080   -1.2200 c         1 MOL      0.922021
     13 O3          1.9430    6.4780   -0.8440 o         1 MOL     -0.840619
     14 O4          2.3540    4.4070   -1.4080 o         1 MOL     -0.840619
     15 H4          0.5030    6.0410    1.5260 hn        1 MOL      0.328282
     16 H5         -0.7600    6.5580   -0.4370 h1        1 MOL      0.119994
     17 H6         -0.4110    5.4660   -2.1920 hc        1 MOL      0.109903
     18 H7          0.0260    3.9010   -1.3630 hc        1 MOL      0.109903
     19 N2         -2.9430    5.0810    0.9710 n         1 MOL     -0.410629
     20 C7         -4.3470    4.7870    0.9120 c3        1 MOL     -0.176485
     21 C8         -5.1880    5.7290    0.0730 c         1 MOL      0.415320
     22 O5         -4.8150    6.8760   -0.1840 o         1 MOL     -0.556927
     23 C9         -4.8350    4.5290    2.3470 c3        1 MOL      0.070638
     24 C10        -5.0280    5.8390    3.2500 c3        1 MOL      0.353111
     25 C11        -3.7900    3.6360    3.1280 c3        1 MOL     -0.290361
     26 C12        -5.6540    5.6990    4.6400 c3        1 MOL     -0.281849
     27 H8         -2.5810    5.4470    1.8380 hn        1 MOL      0.269743
     28 H9         -4.4230    3.8350    0.4020 h1        1 MOL      0.180288
     29 H10        -5.8000    4.0310    2.3200 hc        1 MOL      0.044789
     30 H11        -5.6450    6.5430    2.7090 hc        1 MOL     -0.074066
     31 H12        -4.0930    6.3670    3.4450 hc        1 MOL     -0.074066
     32 H13        -3.3720    2.8670    2.4790 hc        1 MOL      0.069500
     33 H14        -2.9770    4.1740    3.6270 hc        1 MOL      0.069500
     34 H15        -4.2580    3.0850    3.9370 hc        1 MOL      0.069500
     35 H16        -5.0730    4.9610    5.1920 hc        1 MOL      0.049403
     36 H17        -5.6680    6.6770    5.1190 hc        1 MOL      0.049403
     37 H18        -6.6830    5.3670    4.5200 hc        1 MOL      0.049403
     38 N3         -6.3580    5.3290   -0.4990 n         1 MOL     -0.207848
     39 C13        -7.0490    4.0820   -0.4010 c3        1 MOL     -0.224613
     40 C14        -6.4400    2.8390   -1.0550 c         1 MOL      0.698396
     41 O6         -6.5770    1.7310   -0.5980 o         1 MOL     -0.546451
     42 C15        -8.4700    4.3470   -0.8840 c3        1 MOL     -0.161367
     43 C16        -9.4810    3.1510   -0.7830 c         1 MOL      0.638621
     44 O7         -9.7290    2.5000   -1.8450 o         1 MOL     -0.669713
     45 O8        -10.0210    2.8510    0.3050 o         1 MOL     -0.669713
     46 H19        -6.9030    6.0260   -0.9880 hn        1 MOL      0.233977
     47 H20        -7.1900    3.8810    0.6610 h1        1 MOL      0.088583
     48 H21        -8.3850    4.7420   -1.9040 hc        1 MOL      0.021579
     49 H22        -8.9090    5.1040   -0.2400 hc        1 MOL      0.021579
     50 N4         -5.7150    3.1050   -2.1480 n         1 MOL     -0.369184
     51 C17        -4.8420    2.1260   -2.7710 c3        1 MOL     -0.200782
     52 C18        -5.6590    0.8850   -3.1460 c         1 MOL      0.579406
     53 O9         -6.6300    1.0370   -3.8660 o         1 MOL     -0.537568
     54 H23        -5.4750    4.0830   -2.2530 hn        1 MOL      0.267152
     55 H24        -4.0430    1.8140   -2.0930 h1        1 MOL      0.093279
     56 H25        -4.4230    2.4710   -3.7140 h1        1 MOL      0.093279
     57 N5         -5.2170   -0.3260   -2.7910 n         1 MOL     -0.417476
     58 C19        -5.7560   -1.6290   -3.2410 c3        1 MOL      0.081615
     59 C20        -6.6330   -2.3520   -2.2160 c         1 MOL      0.444616
     60 O10        -7.1880   -3.3960   -2.4530 o         1 MOL     -0.572780
     61 C21        -4.6320   -2.6380   -3.6580 c3        1 MOL     -0.279891
     62 C22        -3.6060   -2.9270   -2.5320 c         1 MOL      0.657313
     63 O11        -3.5570   -2.1790   -1.4790 o         1 MOL     -0.648329
     64 O12        -2.9260   -3.9430   -2.6900 o         1 MOL     -0.648329
     65 H26        -4.3260   -0.3430   -2.2930 hn        1 MOL      0.238024
     66 H27        -6.4480   -1.4140   -4.0630 h1        1 MOL      0.056724
     67 H28        -4.1910   -2.1790   -4.5490 hc        1 MOL      0.072853
     68 H29        -5.1070   -3.5800   -3.9310 hc        1 MOL      0.072853
     69 N6         -6.5240   -1.8700   -1.0150 n         1 MOL     -0.122685
     70 C23        -7.0740   -2.3750    0.2800 c3        1 MOL     -0.303138
     71 C24        -6.3230   -3.6730    0.7660 c         1 MOL      0.541218
     72 O13        -6.7450   -4.2450    1.7660 o         1 MOL     -0.604186
     73 H30        -5.9330   -1.0550   -0.9110 hn        1 MOL      0.230302
     74 H31        -8.0760   -2.6070   -0.0610 h1        1 MOL      0.146571
     75 H32        -7.1170   -1.6610    1.1050 h1        1 MOL      0.146571
     76 N7         -5.1720   -4.0100    0.1230 n         1 MOL     -0.105039
     77 C25        -4.2610   -5.1600    0.3210 c3        1 MOL      0.063089
     78 C26        -3.7200   -5.2800    1.7510 c         1 MOL      0.338481
     79 O14        -3.3600   -6.3620    2.1340 o         1 MOL     -0.530730
     80 C27        -4.8900   -6.4650   -0.3060 c3        1 MOL     -0.037988
     81 C28        -4.9710   -6.4170   -1.7850 c3        1 MOL     -0.084011
     82 C29        -5.5610   -7.6950   -2.3780 c         1 MOL      0.637683
     83 N8         -6.6590   -7.6710   -3.1630 n         1 MOL     -0.815145
     84 O15        -5.0360   -8.7650   -2.2350 o         1 MOL     -0.584364
     85 H33        -4.7960   -3.3510   -0.5510 hn        1 MOL     -0.028665
     86 H34        -3.3190   -4.9910   -0.2010 h1        1 MOL      0.120378
     87 H35        -5.8370   -6.7560    0.1340 hc        1 MOL      0.028020
     88 H36        -4.1710   -7.2610   -0.1480 hc        1 MOL      0.028020
     89 H37        -4.0660   -6.2170   -2.3630 hc        1 MOL      0.057469
     90 H38        -5.6820   -5.6050   -1.9570 hc        1 MOL      0.057469
     91 H39        -7.0460   -6.7790   -3.4570 hn        1 MOL      0.350090
     92 H40        -6.9650   -8.5360   -3.5740 hn        1 MOL      0.350090
     93 N9         -3.6910   -4.2110    2.5230 n         1 MOL     -0.064407
     94 C30        -3.0990   -4.1190    3.9130 c3        1 MOL     -0.129758
     95 C31        -1.6850   -3.5390    3.9080 c         1 MOL      0.557940
     96 O16        -1.0500   -3.4850    4.9300 o         1 MOL     -0.584663
     97 C32        -4.0310   -3.3120    4.8810 c3        1 MOL      0.247611
     98 C33        -4.3220   -1.9010    4.3240 c3        1 MOL     -0.327521
     99 C34        -5.3320   -4.1040    5.2170 c3        1 MOL     -0.327521
    100 H41        -3.9880   -3.3520    2.0960 hn        1 MOL      0.178030
    101 H42        -2.8650   -5.1280    4.2630 h1        1 MOL      0.092023
    102 H43        -3.4510   -3.2080    5.7920 hc        1 MOL     -0.017492
    103 H44        -4.7170   -1.2600    5.1200 hc        1 MOL      0.079383
    104 H45        -3.4150   -1.3940    3.9870 hc        1 MOL      0.079383
    105 H46        -5.0160   -1.9300    3.4830 hc        1 MOL      0.079383
    106 H47        -5.1810   -5.1210    5.5510 hc        1 MOL      0.079383
    107 H48        -5.8180   -3.5280    6.0050 hc        1 MOL      0.079383
    108 H49        -5.9500   -4.2180    4.3230 hc        1 MOL      0.079383
    109 N10        -1.1860   -3.0340    2.7760 n         1 MOL     -0.438086
    110 C35         0.0970   -2.2800    2.6380 c3        1 MOL      0.472073
    111 C36         0.9040   -2.8020    1.4490 c         1 MOL      0.352034
    112 O17         0.3280   -3.3910    0.5490 o         1 MOL     -0.490521
    113 C37        -0.0910   -0.7420    2.7020 c3        1 MOL     -0.364864
    114 C38         1.0460   -0.0290    2.0890 c         1 MOL      0.569000
    115 N11         0.8830    0.3540    0.8330 n         1 MOL     -0.655319
    116 O18         2.0520    0.2170    2.6150 o         1 MOL     -0.545353
    117 H50        -1.7450   -3.1670    1.9430 hn        1 MOL      0.167835
    118 H51         0.6850   -2.5550    3.5110 h1        1 MOL     -0.008088
    119 H52        -0.2910   -0.4200    3.7290 hc        1 MOL      0.106653
    120 H53        -0.9710   -0.5710    2.0800 hc        1 MOL      0.106653
    121 H54        -0.0190    0.2320    0.3980 hn        1 MOL      0.353517
    122 H55         1.4980    0.9750    0.3330 hn        1 MOL      0.353517
    123 N12         2.1900   -2.5550    1.3400 n         1 MOL     -0.462037
    124 C39         3.0780   -2.8330    0.2440 c3        1 MOL      0.328749
    125 C40         4.5440   -2.7960    0.7300 c         1 MOL      0.513464
    126 O19         4.8200   -2.4670    1.9050 o         1 MOL     -0.540810
    127 C41         2.8710   -1.7790   -0.7770 c3        1 MOL     -0.192500
    128 C42         3.5030   -2.1830   -2.1590 ca        1 MOL     -0.002365
    129 C43         4.7760   -1.6720   -2.5400 ca        1 MOL     -0.169076
    130 C44         2.8000   -3.0660   -3.0260 ca        1 MOL     -0.169076
    131 C45         5.5030   -2.2340   -3.5480 ca        1 MOL     -0.231585
    132 C46         3.5170   -3.5270   -4.1700 ca        1 MOL     -0.231585
    133 C47         4.8840   -3.1500   -4.3260 ca        1 MOL      0.336209
    134 O20         5.5160   -3.6410   -5.4680 oh        1 MOL     -0.544512
    135 H56         2.6450   -2.0920    2.1100 hn        1 MOL      0.234460
    136 H57         2.8300   -3.8130   -0.1690 h1        1 MOL      0.026637
    137 H58         3.3070   -0.8240   -0.4790 hc        1 MOL      0.097008
    138 H59         1.8090   -1.6370   -0.9790 hc        1 MOL      0.097008
    139 H60         5.2600   -1.0490   -1.7940 ha        1 MOL      0.185433
    140 H61         1.7970   -3.3630   -2.7550 ha        1 MOL      0.185433
    141 H62         6.5060   -1.9430   -3.8270 ha        1 MOL      0.145474
    142 H63         2.9690   -4.1750   -4.8380 ha        1 MOL      0.145474
    143 H64         6.3840   -3.2360   -5.5300 ho        1 MOL      0.374191
    144 N13         5.5520   -3.0680   -0.1240 n         1 MOL     -0.816006
    145 C48         6.9430   -3.2400    0.2800 c3        1 MOL      0.563667
    146 C49         7.9670   -2.6640   -0.7010 c         1 MOL      0.307320
    147 O21         8.3080   -3.3240   -1.6810 o         1 MOL     -0.531061
    148 C50         7.3180   -4.7060    0.6310 c3        1 MOL      0.010862
    149 C51         8.7270   -4.8660    1.3770 c3        1 MOL     -0.335334
    150 C52         9.9490   -4.7710    0.5280 c         1 MOL      0.854406
    151 O22        10.2170   -5.6590   -0.2460 o         1 MOL     -0.714138
    152 O23        10.8190   -3.9450    0.7690 o         1 MOL     -0.714138
    153 H65         5.3120   -3.1860   -1.1050 hn        1 MOL      0.341505
    154 H66         7.0400   -2.7200    1.2260 h1        1 MOL     -0.017958
    155 H67         7.2260   -5.4210   -0.1940 hc        1 MOL      0.000383
    156 H68         6.5710   -5.0510    1.3570 hc        1 MOL      0.000383
    157 H69         8.7520   -5.7890    1.9720 hc        1 MOL      0.053789
    158 H70         8.8140   -4.1300    2.1710 hc        1 MOL      0.053789
    159 N14         8.3170   -1.4030   -0.6510 n         1 MOL     -0.262474
    160 C53         7.7700   -0.3660    0.2700 c3        1 MOL     -0.277909
    161 C54         8.3670   -0.4260    1.7090 c         1 MOL      0.434927
    162 O24         9.5660   -0.6670    1.8240 o         1 MOL     -0.491189
    163 C55         8.0130    1.0640   -0.2210 c3        1 MOL      0.271076
    164 C56         7.2970    1.5410   -1.4950 c3        1 MOL     -0.266331
    165 C57         5.9840    2.3010   -1.1530 c         1 MOL      0.627280
    166 O25         5.6690    3.4340   -1.6390 o         1 MOL     -0.632954
    167 O26         5.2420    1.6890   -0.3610 o         1 MOL     -0.632954
    168 H71         9.0530   -1.1140   -1.2680 hn        1 MOL      0.310968
    169 H72         6.6930   -0.4940    0.4070 h1        1 MOL      0.130181
    170 H73         9.0620    1.0950   -0.5020 hc        1 MOL     -0.054833
    171 H74         7.7860    1.7480    0.5960 hc        1 MOL     -0.054833
    172 H75         7.0180    0.7010   -2.1310 hc        1 MOL      0.030754
    173 H76         7.9540    2.1800   -2.0710 hc        1 MOL      0.030754
    174 N15         7.4690   -0.2670    2.6930 n         1 MOL     -0.243217
    175 C58         7.6270   -0.3020    4.1830 c3        1 MOL     -0.206454
    176 H77         7.3300   -1.2820    4.5560 h1        1 MOL      0.094629
    177 H78         8.6700   -0.1170    4.4420 h1        1 MOL      0.094629
    178 H79         6.9980    0.4650    4.6340 h1        1 MOL      0.094629
    179 H80         6.5000   -0.2100    2.4160 hn        1 MOL      0.277880
    180 Ca1         4.6930    5.6740   -0.8050 Ca        1 MOL      1.747010
    181 O27         4.5040    3.9080    1.2690 oh        1 MOL     -0.856580
    182 H81         4.6470    3.0020    0.9910 ho        1 MOL      0.397722
    183 H82         4.0160    3.8370    2.0830 ho        1 MOL      0.397722
    184 O28         4.5330    6.4450   -3.4870 oh        1 MOL     -0.856580
    185 H83         4.5510    7.3890   -3.6520 ho        1 MOL      0.397722
    186 H84         3.9990    6.0790   -4.1900 ho        1 MOL      0.397722
    187 O29         7.1390    5.9690   -1.7700 oh        1 MOL     -0.856580
    188 H85         7.7980    5.3130   -1.5240 ho        1 MOL      0.397722
    189 H86         7.2960    6.1280   -2.7030 ho        1 MOL      0.397722
    190 O30         5.0500    8.3650   -1.1550 oh        1 MOL     -0.856580
    191 H87         5.5370    8.8670   -0.5030 ho        1 MOL      0.397722
    192 H88         5.3160    8.7520   -1.9920 ho        1 MOL      0.397722
    193 O31         6.5400    6.1220    1.1760 oh        1 MOL     -0.856580
    194 H89         7.4860    6.2390    1.2170 ho        1 MOL      0.397722
    195 H90         6.3620    5.4070    1.7860 ho        1 MOL      0.397722
@<TRIPOS>BOND
     1    1    2 1   
     2    1    4 1   
     3    1    5 1   
     4    1    6 1   
     5    2    3 2   
     6    2    7 1   
     7    7    8 1   
     8    7   15 1   
     9    8    9 1   
    10    8   11 1   
    11    8   16 1   
    12    9   10 2   
    13    9   19 1   
    14   11   12 1   
    15   11   17 1   
    16   11   18 1   
    17   12   13 1   
    18   12   14 1   
    19   19   20 1   
    20   19   27 1   
    21   20   21 1   
    22   20   23 1   
    23   20   28 1   
    24   21   22 2   
    25   21   38 1   
    26   23   24 1   
    27   23   25 1   
    28   23   29 1   
    29   24   26 1   
    30   24   30 1   
    31   24   31 1   
    32   25   32 1   
    33   25   33 1   
    34   25   34 1   
    35   26   35 1   
    36   26   36 1   
    37   26   37 1   
    38   38   39 1   
    39   38   46 1   
    40   39   40 1   
    41   39   42 1   
    42   39   47 1   
    43   40   41 2   
    44   40   50 1   
    45   42   43 1   
    46   42   48 1   
    47   42   49 1   
    48   43   44 1   
    49   43   45 1   
    50   50   51 1   
    51   50   54 1   
    52   51   52 1   
    53   51   55 1   
    54   51   56 1   
    55   52   53 2   
    56   52   57 1   
    57   57   58 1   
    58   57   65 1   
    59   58   59 1   
    60   58   61 1   
    61   58   66 1   
    62   59   60 2   
    63   59   69 1   
    64   61   62 1   
    65   61   67 1   
    66   61   68 1   
    67   62   63 1   
    68   62   64 1   
    69   69   70 1   
    70   69   73 1   
    71   70   71 1   
    72   70   74 1   
    73   70   75 1   
    74   71   72 2   
    75   71   76 1   
    76   76   77 1   
    77   76   85 1   
    78   77   78 1   
    79   77   80 1   
    80   77   86 1   
    81   78   79 2   
    82   78   93 1   
    83   80   81 1   
    84   80   87 1   
    85   80   88 1   
    86   81   82 1   
    87   81   89 1   
    88   81   90 1   
    89   82   83 1   
    90   82   84 2   
    91   83   91 1   
    92   83   92 1   
    93   93   94 1   
    94   93  100 1   
    95   94   95 1   
    96   94   97 1   
    97   94  101 1   
    98   95   96 2   
    99   95  109 1   
   100   97   98 1   
   101   97   99 1   
   102   97  102 1   
   103   98  103 1   
   104   98  104 1   
   105   98  105 1   
   106   99  106 1   
   107   99  107 1   
   108   99  108 1   
   109  109  110 1   
   110  109  117 1   
   111  110  111 1   
   112  110  113 1   
   113  110  118 1   
   114  111  112 2   
   115  111  123 1   
   116  113  114 1   
   117  113  119 1   
   118  113  120 1   
   119  114  115 1   
   120  114  116 2   
   121  115  121 1   
   122  115  122 1   
   123  123  124 1   
   124  123  135 1   
   125  124  125 1   
   126  124  127 1   
   127  124  136 1   
   128  125  126 2   
   129  125  144 1   
   130  127  128 1   
   131  127  137 1   
   132  127  138 1   
   133  128  129 ar  
   134  128  130 ar  
   135  129  131 ar  
   136  129  139 1   
   137  130  132 ar  
   138  130  140 1   
   139  131  133 ar  
   140  131  141 1   
   141  132  133 ar  
   142  132  142 1   
   143  133  134 1   
   144  134  143 1   
   145  144  145 1   
   146  144  153 1   
   147  145  146 1   
   148  145  148 1   
   149  145  154 1   
   150  146  147 2   
   151  146  159 1   
   152  148  149 1   
   153  148  155 1   
   154  148  156 1   
   155  149  150 1   
   156  149  157 1   
   157  149  158 1   
   158  150  151 1   
   159  150  152 1   
   160  159  160 1   
   161  159  168 1   
   162  160  161 1   
   163  160  163 1   
   164  160  169 1   
   165  161  162 2   
   166  161  174 1   
   167  163  164 1   
   168  163  170 1   
   169  163  171 1   
   170  164  165 1   
   171  164  172 1   
   172  164  173 1   
   173  165  166 1   
   174  165  167 1   
   175  174  175 1   
   176  174  179 1   
   177  175  176 1   
   178  175  177 1   
   179  175  178 1   
   180  181  182 1   
   181  181  183 1   
   182  184  185 1   
   183  184  186 1   
   184  187  188 1   
   185  187  189 1   
   186  190  191 1   
   187  190  192 1   
   188  193  194 1   
   189  193  195 1   
@<TRIPOS>SUBSTRUCTURE
     1 MOL         1 TEMP              0 ****  ****    0 ROOT
