@<TRIPOS>MOLECULE
MOL
  195   189     1     0     0
SMALL
resp


@<TRIPOS>ATOM
      1 C1         -4.0150    6.3780    0.8990 c3        1 MOL     -0.439340
      2 C2         -5.5680    6.0460    1.1890 c         1 MOL      0.642905
      3 O1         -6.4300    6.8680    0.8920 o         1 MOL     -0.536411
      4 H1         -3.9430    7.0810    0.0690 hc        1 MOL      0.112911
      5 H2         -3.5650    6.8190    1.7880 hc        1 MOL      0.112911
      6 H3         -3.4880    5.4590    0.6420 hc        1 MOL      0.112911
      7 N1         -5.8110    4.8940    1.8420 n         1 MOL     -0.582701
      8 C3         -7.1250    4.3420    1.9720 c3        1 MOL      0.207486
      9 C4         -7.6460    3.8730    0.5380 c         1 MOL      0.492637
     10 O2         -7.0610    4.1880   -0.5080 o         1 MOL     -0.502352
     11 C5         -8.1450    5.2590    2.7170 c3        1 MOL     -0.254587
     12 C6         -9.2620    4.4710    3.4220 c         1 MOL      0.666283
     13 O3         -9.5250    3.2910    3.0940 o         1 MOL     -0.680336
     14 O4         -9.9750    5.1430    4.1890 o         1 MOL     -0.680336
     15 H4         -5.0640    4.2510    2.0380 hn        1 MOL      0.322556
     16 H5         -7.0220    3.4680    2.6150 h1        1 MOL      0.029766
     17 H6         -8.5400    6.0390    2.0620 hc        1 MOL      0.085523
     18 H7         -7.6170    5.8940    3.4270 hc        1 MOL      0.085523
     19 N2         -8.8050    3.1500    0.4120 n         1 MOL     -0.586534
     20 C7         -9.3000    2.4720   -0.8250 c3        1 MOL      0.332141
     21 C8         -8.3170    1.4240   -1.3960 c         1 MOL      0.382016
     22 O5         -7.9820    1.4010   -2.5970 o         1 MOL     -0.520272
     23 C9         -9.8330    3.6590   -1.7730 c3        1 MOL     -0.046459
     24 C10       -11.3520    3.9210   -1.4180 c3        1 MOL      0.052376
     25 C11       -11.8420    5.1760   -2.1610 c3        1 MOL      0.160541
     26 C12       -13.2660    5.4570   -1.6930 c3        1 MOL     -0.007860
     27 N3        -13.9950    6.3650   -2.6010 n4        1 MOL     -0.333571
     28 H8         -9.3650    3.0700    1.2480 hn        1 MOL      0.281358
     29 H9        -10.1570    1.8430   -0.5680 h1        1 MOL      0.011759
     30 H10        -9.8710    3.3470   -2.8150 hc        1 MOL      0.016558
     31 H11        -9.2760    4.5930   -1.8380 hc        1 MOL      0.016558
     32 H12       -11.5340    3.9810   -0.3480 hc        1 MOL     -0.033547
     33 H13       -11.8670    3.0500   -1.8140 hc        1 MOL     -0.033547
     34 H14       -11.8000    4.9950   -3.2400 hc        1 MOL     -0.012686
     35 H15       -11.2540    6.0740   -1.9730 hc        1 MOL     -0.012686
     36 H16       -13.2500    5.8410   -0.6740 hx        1 MOL      0.093939
     37 H17       -13.7780    4.5030   -1.6620 hx        1 MOL      0.093939
     38 H18       -14.6900    6.9180   -2.1270 hn        1 MOL      0.301133
     39 H19       -13.4590    7.1290   -2.9800 hn        1 MOL      0.301133
     40 H20       -14.4300    5.8640   -3.3650 hn        1 MOL      0.301133
     41 N4         -7.9170    0.4900   -0.4960 n         1 MOL     -0.558428
     42 C13        -6.9910   -0.6190   -0.8200 c3        1 MOL      0.453643
     43 C14        -7.0450   -1.6030    0.3810 c         1 MOL      0.251639
     44 O6         -6.7460   -1.1150    1.5070 o         1 MOL     -0.523823
     45 C15        -5.5790   -0.0610   -0.9550 c3        1 MOL     -0.156483
     46 C16        -4.4600   -1.0640   -1.2900 c         1 MOL      0.472203
     47 O7         -4.7220   -2.1630   -1.8220 o         1 MOL     -0.590634
     48 O8         -3.3070   -0.7360   -0.8650 o         1 MOL     -0.590634
     49 H21        -8.2330    0.6670    0.4460 hn        1 MOL      0.312760
     50 H22        -7.2380   -1.2050   -1.7090 h1        1 MOL     -0.010457
     51 H23        -5.2720    0.4360   -0.0460 hc        1 MOL      0.057094
     52 H24        -5.5330    0.6190   -1.8070 hc        1 MOL      0.057094
     53 N5         -7.3070   -2.9060    0.3030 n         1 MOL     -0.245531
     54 C17        -7.6260   -3.7480   -0.8990 c3        1 MOL     -0.235455
     55 C18        -6.7570   -4.9500   -1.0140 c         1 MOL      0.670131
     56 O9         -7.3390   -6.0110   -1.0550 o         1 MOL     -0.573630
     57 H25        -7.0480   -3.3120    1.1870 hn        1 MOL      0.263221
     58 H26        -7.5010   -3.2340   -1.8480 h1        1 MOL      0.108927
     59 H27        -8.6520   -4.0950   -0.7780 h1        1 MOL      0.108927
     60 N6         -5.4660   -4.7430   -0.9560 n         1 MOL     -0.382759
     61 C19        -4.5200   -5.8500   -0.7050 c3        1 MOL     -0.064631
     62 C20        -3.2440   -5.3320    0.0130 c         1 MOL      0.275623
     63 O10        -2.8590   -4.1980   -0.1110 o         1 MOL     -0.339018
     64 C21        -4.1190   -6.4990   -2.0770 c3        1 MOL      0.007393
     65 C22        -3.7850   -5.4310   -3.1760 c         1 MOL      0.534016
     66 O11        -2.6800   -4.8460   -3.0390 o         1 MOL     -0.614951
     67 O12        -4.5570   -5.2590   -4.1580 o         1 MOL     -0.614951
     68 H28        -5.1160   -3.7990   -0.8320 hn        1 MOL      0.324111
     69 H29        -4.8780   -6.7110   -0.1400 h1        1 MOL      0.063376
     70 H30        -4.8380   -7.2350   -2.4580 hc        1 MOL      0.004211
     71 H31        -3.2150   -7.0850   -1.9220 hc        1 MOL      0.004211
     72 N7         -2.5770   -6.2370    0.7360 n         1 MOL     -0.304620
     73 C23        -1.2610   -5.9890    1.3360 c3        1 MOL     -0.164207
     74 C24        -0.9300   -4.8530    2.3050 c         1 MOL      0.593606
     75 O13         0.2050   -4.7240    2.7480 o         1 MOL     -0.558347
     76 H32        -2.9450   -7.1760    0.6500 hn        1 MOL      0.306953
     77 H33        -0.6060   -5.7670    0.4900 h1        1 MOL      0.094256
     78 H34        -0.8920   -6.9430    1.7380 h1        1 MOL      0.094256
     79 N8         -1.8950   -3.9200    2.3930 n         1 MOL     -0.493135
     80 C25        -1.4330   -2.5980    2.8120 c3        1 MOL      0.012482
     81 C26        -0.7930   -1.7070    1.7170 c         1 MOL      0.284292
     82 O14        -0.9810   -1.8790    0.5470 o         1 MOL     -0.227467
     83 C27        -2.7190   -1.8910    3.3180 c3        1 MOL      0.129854
     84 C28        -3.6590   -1.4900    2.2420 c3        1 MOL     -0.010765
     85 O15        -3.5590   -2.7330    4.1380 oh        1 MOL     -0.588181
     86 H35        -2.6520   -3.8900    1.7240 hn        1 MOL      0.310136
     87 H36        -0.7250   -2.7580    3.6220 h1        1 MOL      0.113589
     88 H37        -2.4730   -1.1060    4.0360 h1        1 MOL      0.026356
     89 H38        -3.0420   -2.9880    4.9100 ho        1 MOL      0.383815
     90 H39        -4.0340   -2.3740    1.7230 hc        1 MOL      0.045211
     91 H40        -4.5240   -1.0950    2.7550 hc        1 MOL      0.045211
     92 H41        -3.2820   -0.6580    1.6550 hc        1 MOL      0.045211
     93 N9         -0.1410   -0.6260    2.2230 n         1 MOL     -0.419276
     94 C29         0.3400    0.4280    1.2970 c3        1 MOL     -0.042492
     95 C30         1.6010   -0.0260    0.5400 c         1 MOL      0.322608
     96 O16         1.8320    0.3420   -0.6530 o         1 MOL     -0.549795
     97 C31         0.6570    1.7550    2.0480 c3        1 MOL      0.218758
     98 C32         1.7340    1.6180    3.1500 c3        1 MOL      0.193927
     99 C33        -0.7120    2.4110    2.3100 c3        1 MOL     -0.126733
    100 C34         2.3100    3.0010    3.4540 c3        1 MOL     -0.323035
    101 H42         0.3030   -0.7450    3.1290 hn        1 MOL      0.257485
    102 H43        -0.4910    0.6390    0.6230 h1        1 MOL      0.083180
    103 H44         1.1320    2.4080    1.3140 hc        1 MOL     -0.004760
    104 H45         2.5660    1.0270    2.7780 hc        1 MOL     -0.049347
    105 H46         1.2920    1.1040    4.0150 hc        1 MOL     -0.049347
    106 H47        -1.3500    1.6120    2.6870 hc        1 MOL      0.019132
    107 H48        -0.5530    3.2050    3.0490 hc        1 MOL      0.019132
    108 H49        -1.1140    2.8660    1.4090 hc        1 MOL      0.019132
    109 H50         1.5850    3.5490    4.0560 hc        1 MOL      0.079405
    110 H51         3.2070    2.8200    4.0460 hc        1 MOL      0.079405
    111 H52         2.5330    3.5800    2.5540 hc        1 MOL      0.079405
    112 N10         2.4680   -0.8940    1.1030 n         1 MOL     -0.005295
    113 C35         3.7530   -1.4050    0.5630 c3        1 MOL     -0.283705
    114 C36         4.8880   -1.4510    1.5930 c         1 MOL      0.631457
    115 O17         4.6480   -1.6210    2.8340 o         1 MOL     -0.528480
    116 C37         3.6810   -2.8680   -0.0130 c3        1 MOL      0.323144
    117 C38         3.3430   -3.9960    0.9040 c3        1 MOL     -0.309843
    118 O18         2.6560   -2.9460   -0.9970 oh        1 MOL     -0.638832
    119 H53         2.2720   -1.1480    2.0640 hn        1 MOL      0.159759
    120 H54         4.0670   -0.7910   -0.2850 h1        1 MOL      0.117064
    121 H55         4.6410   -3.0460   -0.5000 h1        1 MOL      0.030873
    122 H56         2.7970   -2.2310   -1.6280 ho        1 MOL      0.415610
    123 H57         3.3710   -4.9400    0.3530 hc        1 MOL      0.107685
    124 H58         4.0310   -4.0250    1.7450 hc        1 MOL      0.107685
    125 H59         2.3610   -3.8860    1.3820 hc        1 MOL      0.107685
    126 N11         6.1310   -1.2570    1.1400 n         1 MOL     -0.492327
    127 C39         7.2740   -1.4490    2.0800 c3        1 MOL     -0.092780
    128 C40         8.3940   -0.4220    1.8880 c         1 MOL      0.655351
    129 O19         8.9540   -0.0270    2.8330 o         1 MOL     -0.549014
    130 C41         7.8020   -2.9110    2.0650 c3        1 MOL      0.369919
    131 C42         8.3430   -3.3800    0.7130 c3        1 MOL     -0.279387
    132 O20         6.7360   -3.8010    2.3410 oh        1 MOL     -0.592925
    133 H60         6.2600   -1.0390    0.1640 hn        1 MOL      0.287504
    134 H61         6.8940   -1.2230    3.0780 h1        1 MOL      0.103102
    135 H62         8.5700   -2.9360    2.8330 h1        1 MOL     -0.004863
    136 H63         6.8230   -3.9750    3.2880 ho        1 MOL      0.390520
    137 H64         7.5590   -3.6150   -0.0060 hc        1 MOL      0.071254
    138 H65         9.0940   -2.6760    0.3470 hc        1 MOL      0.071254
    139 H66         8.8750   -4.2980    0.9870 hc        1 MOL      0.071254
    140 N12         8.7760   -0.0950    0.6320 n         1 MOL     -0.461177
    141 C43         9.8760    0.7950    0.2490 c3        1 MOL     -0.052578
    142 C44         9.4720    1.5800   -1.0180 c         1 MOL      0.408076
    143 O21         8.6700    1.1300   -1.8700 o         1 MOL     -0.516158
    144 C45        11.2130   -0.0050    0.1290 c3        1 MOL      0.000342
    145 C46        12.4170    0.9460   -0.2360 c3        1 MOL     -0.063968
    146 C47        13.5520   -0.1160   -0.0830 c3        1 MOL     -0.156644
    147 C48        14.8460    0.7130   -0.2690 c3        1 MOL      0.194955
    148 N13        16.0430    0.0030    0.1920 n4        1 MOL     -0.464844
    149 H67         8.2920   -0.4410   -0.1770 hn        1 MOL      0.253822
    150 H68        10.1230    1.4330    1.0960 h1        1 MOL      0.119771
    151 H69        11.1090   -0.7170   -0.6850 hc        1 MOL      0.018229
    152 H70        11.3760   -0.5880    1.0350 hc        1 MOL      0.018229
    153 H71        12.5070    1.7530    0.4980 hc        1 MOL      0.102803
    154 H72        12.3280    1.2570   -1.2720 hc        1 MOL      0.102803
    155 H73        13.4820   -0.9690   -0.7680 hc        1 MOL      0.058809
    156 H74        13.5510   -0.5380    0.9170 hc        1 MOL      0.058809
    157 H75        14.7470    1.6170    0.3280 hx        1 MOL      0.051507
    158 H76        14.9860    0.9580   -1.3210 hx        1 MOL      0.051507
    159 H77        15.9580   -0.1340    1.1960 hn        1 MOL      0.347162
    160 H78        16.2930   -0.8160   -0.3380 hn        1 MOL      0.347162
    161 H79        16.8200    0.6350    0.0610 hn        1 MOL      0.347162
    162 N14         9.9850    2.7770   -1.1900 n         1 MOL     -0.119128
    163 C49         9.9380    3.4710   -2.4130 c3        1 MOL      0.252271
    164 C50         8.5690    4.0650   -2.9210 c         1 MOL      0.309301
    165 O22         8.2570    3.8330   -4.0630 o         1 MOL     -0.536821
    166 C51        10.8780    4.6400   -2.5500 c3        1 MOL      0.015015
    167 C52        12.3260    4.2510   -2.3800 c3        1 MOL     -0.305798
    168 C53        12.7790    4.6410   -0.9590 c         1 MOL      0.741841
    169 O23        12.0370    4.2990   -0.0340 o         1 MOL     -0.702639
    170 O24        13.9400    5.0210   -0.7530 o         1 MOL     -0.702639
    171 H80        10.6710    3.1530   -0.5530 hn        1 MOL      0.072743
    172 H81        10.2760    2.7400   -3.1540 h1        1 MOL     -0.024467
    173 H82        10.5950    5.4250   -1.8570 hc        1 MOL      0.044033
    174 H83        10.7420    5.0630   -3.5450 hc        1 MOL      0.044033
    175 H84        12.9270    4.8680   -3.0560 hc        1 MOL      0.037715
    176 H85        12.4470    3.1920   -2.6130 hc        1 MOL      0.037715
    177 N15         7.7420    4.7970   -2.1930 n         1 MOL     -0.342939
    178 C54         7.7380    5.1770   -0.8010 c3        1 MOL     -0.106345
    179 H86         7.6270    4.2860   -0.1830 h1        1 MOL      0.069018
    180 H87         8.6780    5.6720   -0.5560 h1        1 MOL      0.069018
    181 H88         6.9070    5.8560   -0.6120 h1        1 MOL      0.069018
    182 H89         6.8720    4.9770   -2.6730 hn        1 MOL      0.301458
    183 Ca1        -1.8910   -2.6370   -1.9550 Ca        1 MOL      1.319318
    184 O25         0.2500   -4.1880   -1.3900 oh        1 MOL     -0.756645
    185 H90         1.1510   -3.8960   -1.2400 ho        1 MOL      0.388769
    186 H91         0.3270   -4.8300   -2.0990 ho        1 MOL      0.388769
    187 O26        -0.0180   -2.8300   -4.0250 oh        1 MOL     -0.756645
    188 H92        -0.4270   -3.3320   -4.7190 ho        1 MOL      0.388769
    189 H93         0.5370   -2.1970   -4.4780 ho        1 MOL      0.388769
    190 O27        -0.4510   -0.5370   -2.1840 oh        1 MOL     -0.756645
    191 H94         0.4790   -0.4830   -1.9790 ho        1 MOL      0.388769
    192 H95        -0.7250    0.3730   -2.3070 ho        1 MOL      0.388769
    193 O28        -3.1500   -1.6610   -4.1390 oh        1 MOL     -0.756645
    194 H96        -2.6700   -0.9510   -4.5540 ho        1 MOL      0.388769
    195 H97        -4.0720   -1.4530   -4.3110 ho        1 MOL      0.388769
@<TRIPOS>BOND
     1    1    2 1   
     2    1    4 1   
     3    1    5 1   
     4    1    6 1   
     5    2    3 2   
     6    2    7 1   
     7    7    8 1   
     8    7   15 1   
     9    8    9 1   
    10    8   11 1   
    11    8   16 1   
    12    9   10 2   
    13    9   19 1   
    14   11   12 1   
    15   11   17 1   
    16   11   18 1   
    17   12   13 1   
    18   12   14 1   
    19   19   20 1   
    20   19   28 1   
    21   20   21 1   
    22   20   23 1   
    23   20   29 1   
    24   21   22 2   
    25   21   41 1   
    26   23   24 1   
    27   23   30 1   
    28   23   31 1   
    29   24   25 1   
    30   24   32 1   
    31   24   33 1   
    32   25   26 1   
    33   25   34 1   
    34   25   35 1   
    35   26   27 1   
    36   26   36 1   
    37   26   37 1   
    38   27   38 1   
    39   27   39 1   
    40   27   40 1   
    41   41   42 1   
    42   41   49 1   
    43   42   43 1   
    44   42   45 1   
    45   42   50 1   
    46   43   44 2   
    47   43   53 1   
    48   45   46 1   
    49   45   51 1   
    50   45   52 1   
    51   46   47 1   
    52   46   48 1   
    53   53   54 1   
    54   53   57 1   
    55   54   55 1   
    56   54   58 1   
    57   54   59 1   
    58   55   56 2   
    59   55   60 1   
    60   60   61 1   
    61   60   68 1   
    62   61   62 1   
    63   61   64 1   
    64   61   69 1   
    65   62   63 2   
    66   62   72 1   
    67   64   65 1   
    68   64   70 1   
    69   64   71 1   
    70   65   66 1   
    71   65   67 1   
    72   72   73 1   
    73   72   76 1   
    74   73   74 1   
    75   73   77 1   
    76   73   78 1   
    77   74   75 2   
    78   74   79 1   
    79   79   80 1   
    80   79   86 1   
    81   80   81 1   
    82   80   83 1   
    83   80   87 1   
    84   81   82 2   
    85   81   93 1   
    86   83   84 1   
    87   83   85 1   
    88   83   88 1   
    89   84   90 1   
    90   84   91 1   
    91   84   92 1   
    92   85   89 1   
    93   93   94 1   
    94   93  101 1   
    95   94   95 1   
    96   94   97 1   
    97   94  102 1   
    98   95   96 2   
    99   95  112 1   
   100   97   98 1   
   101   97   99 1   
   102   97  103 1   
   103   98  100 1   
   104   98  104 1   
   105   98  105 1   
   106   99  106 1   
   107   99  107 1   
   108   99  108 1   
   109  100  109 1   
   110  100  110 1   
   111  100  111 1   
   112  112  113 1   
   113  112  119 1   
   114  113  114 1   
   115  113  116 1   
   116  113  120 1   
   117  114  115 2   
   118  114  126 1   
   119  116  117 1   
   120  116  118 1   
   121  116  121 1   
   122  117  123 1   
   123  117  124 1   
   124  117  125 1   
   125  118  122 1   
   126  126  127 1   
   127  126  133 1   
   128  127  128 1   
   129  127  130 1   
   130  127  134 1   
   131  128  129 2   
   132  128  140 1   
   133  130  131 1   
   134  130  132 1   
   135  130  135 1   
   136  131  137 1   
   137  131  138 1   
   138  131  139 1   
   139  132  136 1   
   140  140  141 1   
   141  140  149 1   
   142  141  142 1   
   143  141  144 1   
   144  141  150 1   
   145  142  143 2   
   146  142  162 1   
   147  144  145 1   
   148  144  151 1   
   149  144  152 1   
   150  145  146 1   
   151  145  153 1   
   152  145  154 1   
   153  146  147 1   
   154  146  155 1   
   155  146  156 1   
   156  147  148 1   
   157  147  157 1   
   158  147  158 1   
   159  148  159 1   
   160  148  160 1   
   161  148  161 1   
   162  162  163 1   
   163  162  171 1   
   164  163  164 1   
   165  163  166 1   
   166  163  172 1   
   167  164  165 2   
   168  164  177 1   
   169  166  167 1   
   170  166  173 1   
   171  166  174 1   
   172  167  168 1   
   173  167  175 1   
   174  167  176 1   
   175  168  169 1   
   176  168  170 1   
   177  177  178 1   
   178  177  182 1   
   179  178  179 1   
   180  178  180 1   
   181  178  181 1   
   182  184  185 1   
   183  184  186 1   
   184  187  188 1   
   185  187  189 1   
   186  190  191 1   
   187  190  192 1   
   188  193  194 1   
   189  193  195 1   
@<TRIPOS>SUBSTRUCTURE
     1 MOL         1 TEMP              0 ****  ****    0 ROOT
