@<TRIPOS>MOLECULE
MOL
  181   177     1     0     0
SMALL
resp


@<TRIPOS>ATOM
      1 C1         -9.1510   -5.2350   -4.4610 c3        1 MOL     -0.367869
      2 C2         -8.2850   -4.6650   -3.3040 c         1 MOL      0.705177
      3 O1         -7.4460   -5.4000   -2.8230 o         1 MOL     -0.575793
      4 H1         -8.9930   -6.3100   -4.5370 hc        1 MOL      0.086187
      5 H2        -10.2040   -5.0370   -4.2590 hc        1 MOL      0.086187
      6 H3         -8.8650   -4.7580   -5.3990 hc        1 MOL      0.086187
      7 N1         -8.4810   -3.4130   -2.9270 n         1 MOL     -0.567803
      8 C3         -9.4470   -2.3630   -3.3820 c3        1 MOL      0.073254
      9 C4        -10.2940   -1.7550   -2.2450 c         1 MOL      0.397242
     10 O2        -10.9760   -0.7170   -2.4690 o         1 MOL     -0.527579
     11 C5         -8.7730   -1.2030   -4.1270 c3        1 MOL     -0.283299
     12 C6         -7.7160   -0.4190   -3.3870 c         1 MOL      0.857383
     13 O3         -7.3260    0.6360   -3.9310 o         1 MOL     -0.805158
     14 O4         -7.1810   -0.7410   -2.3080 o         1 MOL     -0.805158
     15 H4         -7.8260   -3.1370   -2.2180 hn        1 MOL      0.327821
     16 H5        -10.1680   -2.8430   -4.0490 h1        1 MOL      0.085355
     17 H6         -9.4840   -0.4520   -4.4390 hc        1 MOL      0.093060
     18 H7         -8.3440   -1.6360   -5.0340 hc        1 MOL      0.093060
     19 N2        -10.1530   -2.2400   -0.9940 n         1 MOL     -0.373337
     20 C7        -10.8860   -1.8570    0.2000 c3        1 MOL      0.260435
     21 C8        -10.2380   -0.6820    1.0720 c         1 MOL      0.406721
     22 O5        -10.6010   -0.3760    2.2710 o         1 MOL     -0.532578
     23 C9        -11.2490   -3.0910    1.1080 c3        1 MOL     -0.245553
     24 H8         -9.5380   -3.0310   -0.8670 hn        1 MOL      0.258928
     25 H9        -11.8960   -1.5500   -0.0680 h1        1 MOL      0.032653
     26 H10       -11.8060   -2.8520    2.0200 hc        1 MOL      0.066815
     27 H11       -11.8740   -3.7840    0.5420 hc        1 MOL      0.066815
     28 H12       -10.3310   -3.6150    1.3890 hc        1 MOL      0.066815
     29 N3         -9.3080    0.0770    0.3950 n         1 MOL     -0.423166
     30 C10        -8.5420    1.0800    1.2310 c3        1 MOL      0.096644
     31 C11        -7.7830    2.1680    0.4330 c         1 MOL      0.312542
     32 O6         -7.4590    1.9040   -0.7030 o         1 MOL     -0.363196
     33 C12        -7.4300    0.3440    2.0580 c3        1 MOL     -0.064526
     34 C13        -6.4850   -0.5750    1.1850 c         1 MOL      0.778729
     35 O7         -6.3950   -1.7600    1.5160 o         1 MOL     -0.708272
     36 O8         -5.7340   -0.1290    0.3240 o         1 MOL     -0.708272
     37 H13        -8.8330   -0.2330   -0.4380 hn        1 MOL      0.299981
     38 H14        -9.1730    1.6930    1.8750 h1        1 MOL      0.061597
     39 H15        -7.7940   -0.3520    2.8040 hc        1 MOL     -0.000850
     40 H16        -6.8760    1.1040    2.5970 hc        1 MOL     -0.000850
     41 N4         -7.4570    3.3890    0.9900 n         1 MOL     -0.393984
     42 C14        -6.5050    4.3750    0.4560 c3        1 MOL     -0.179339
     43 C15        -4.9840    3.9650    0.5250 c         1 MOL      0.582966
     44 O9         -4.5840    3.0530   -0.2310 o         1 MOL     -0.606587
     45 H17        -7.7930    3.4770    1.9390 hn        1 MOL      0.285289
     46 H18        -6.6600    5.3390    0.9230 h1        1 MOL      0.108938
     47 H19        -6.6330    4.5060   -0.6180 h1        1 MOL      0.108938
     48 N5         -4.1570    4.7020    1.2370 n         1 MOL     -0.456752
     49 C16        -2.7350    4.5850    1.3320 c3        1 MOL      0.183125
     50 C17        -2.3820    3.7450    2.6000 c         1 MOL      0.414053
     51 O10        -2.1920    4.3100    3.7340 o         1 MOL     -0.531368
     52 C18        -2.0390    5.9610    1.1930 c3        1 MOL     -0.250666
     53 C19        -2.4420    6.7020   -0.0250 c         1 MOL      0.706860
     54 N6         -1.9580    6.3400   -1.1600 n         1 MOL     -0.772883
     55 O11        -3.3040    7.5340   -0.0800 o         1 MOL     -0.590448
     56 H20        -4.5200    5.5100    1.7140 hn        1 MOL      0.299091
     57 H21        -2.3740    4.0040    0.4870 h1        1 MOL      0.059084
     58 H22        -0.9510    5.8990    1.2910 hc        1 MOL      0.087315
     59 H23        -2.3830    6.6880    1.9280 hc        1 MOL      0.087315
     60 H24        -1.1650    5.7390   -1.3470 hn        1 MOL      0.344121
     61 H25        -2.0450    7.0370   -1.8860 hn        1 MOL      0.344121
     62 N7         -2.2960    2.4630    2.3560 n         1 MOL     -0.242483
     63 C20        -1.9080    1.4150    3.2880 c3        1 MOL     -0.058349
     64 C21        -2.0370   -0.0610    2.7530 c         1 MOL      0.701550
     65 O12        -2.6790   -0.2620    1.7460 o         1 MOL     -0.599206
     66 H26        -2.6280    2.2910    1.4250 hn        1 MOL      0.186889
     67 H27        -2.4220    1.3890    4.2370 h1        1 MOL      0.096019
     68 H28        -0.8480    1.6110    3.4940 h1        1 MOL      0.096019
     69 N8         -1.2270   -1.0410    3.1900 n         1 MOL     -0.551768
     70 C22        -0.2960   -1.0050    4.3460 c3        1 MOL     -0.091353
     71 C23         1.1320   -1.5330    4.1030 c         1 MOL      0.550124
     72 O13         2.1380   -1.1610    4.7530 o         1 MOL     -0.533013
     73 C24        -0.8670   -1.7960    5.5440 c3        1 MOL      0.453729
     74 C25        -2.1830   -1.4860    6.0340 c3        1 MOL     -0.529501
     75 O14        -0.9160   -3.1850    5.2520 oh        1 MOL     -0.649969
     76 H29        -1.3140   -1.9190    2.7140 hn        1 MOL      0.386288
     77 H30        -0.2450    0.0280    4.7050 h1        1 MOL      0.085994
     78 H31        -0.0930   -1.5760    6.2930 h1        1 MOL     -0.029255
     79 H32        -0.8500   -3.6380    6.0930 ho        1 MOL      0.414505
     80 H33        -2.3570   -0.4240    6.1790 hc        1 MOL      0.129657
     81 H34        -2.9790   -1.8590    5.4000 hc        1 MOL      0.129657
     82 H35        -2.3150   -2.1040    6.9290 hc        1 MOL      0.129657
     83 N9          1.1950   -2.4220    3.0450 n         1 MOL     -0.294032
     84 C26         2.4670   -2.8580    2.3860 c3        1 MOL      0.003705
     85 C27         2.6110   -2.3210    1.0100 c         1 MOL      0.490692
     86 O15         1.6870   -2.5630    0.2180 o         1 MOL     -0.567620
     87 C28         2.4230   -4.4400    2.3150 c3        1 MOL      0.083320
     88 C29         2.1990   -5.1560    3.6420 c3        1 MOL      0.024052
     89 C30         3.5080   -5.1680    1.4940 c3        1 MOL     -0.292962
     90 C31         3.3880   -5.1170    4.6540 c3        1 MOL     -0.190673
     91 H36         0.3830   -2.4910    2.4460 hn        1 MOL      0.195803
     92 H37         3.3410   -2.5350    2.9480 h1        1 MOL      0.159863
     93 H38         1.4930   -4.5920    1.7730 hc        1 MOL     -0.002450
     94 H39         1.9570   -6.1960    3.4620 hc        1 MOL     -0.014168
     95 H40         1.4580   -4.6230    4.2440 hc        1 MOL     -0.014168
     96 H41         3.0840   -6.1270    1.2120 hc        1 MOL      0.081896
     97 H42         3.8320   -4.6550    0.5840 hc        1 MOL      0.081896
     98 H43         4.3960   -5.3430    2.1160 hc        1 MOL      0.081896
     99 H44         4.0840   -5.9150    4.3650 hc        1 MOL      0.043314
    100 H45         3.9740   -4.2070    4.6050 hc        1 MOL      0.043314
    101 H46         3.0480   -5.3560    5.6630 hc        1 MOL      0.043314
    102 N10         3.6960   -1.6050    0.5540 n         1 MOL     -0.404575
    103 C32         4.7470   -0.8920    1.3080 c3        1 MOL      0.368509
    104 C33         5.7360   -0.1790    0.3110 c         1 MOL      0.620988
    105 O16         5.4840   -0.2080   -0.9050 o         1 MOL     -0.528672
    106 C34         4.2330    0.1720    2.2790 c3        1 MOL     -0.067665
    107 C35         3.2950    1.1820    1.7060 c         1 MOL      0.568476
    108 O17         3.0590    1.2320    0.4540 o         1 MOL     -0.706528
    109 O18         2.7780    2.0680    2.5220 o         1 MOL     -0.706528
    110 H47         3.5870   -1.3580   -0.4230 hn        1 MOL      0.265548
    111 H48         5.3280   -1.5800    1.9230 h1        1 MOL     -0.095179
    112 H49         5.1340    0.6790    2.6460 hc        1 MOL     -0.024869
    113 H50         3.7610   -0.3060    3.1480 hc        1 MOL     -0.024869
    114 N11         6.7680    0.4050    0.9270 n         1 MOL     -0.731288
    115 C36         7.7730    1.2740    0.2710 c3        1 MOL      0.706471
    116 C37         9.1880    0.6040    0.4010 c         1 MOL      0.041356
    117 O19         9.4690    0.0650    1.4470 o         1 MOL     -0.448260
    118 C38         7.7210    2.7230    0.9210 c3        1 MOL     -0.410450
    119 C39         8.5030    3.6960    0.1490 ca        1 MOL      0.191421
    120 C40         9.8020    3.9580    0.6290 ca        1 MOL     -0.200831
    121 C41         7.9720    4.3680   -1.0020 ca        1 MOL     -0.200831
    122 C42        10.6440    4.8090   -0.1500 ca        1 MOL     -0.127907
    123 C43         8.7670    5.3020   -1.6820 ca        1 MOL     -0.127907
    124 C44        10.1380    5.5010   -1.2820 ca        1 MOL     -0.143497
    125 H51         6.9690    0.1770    1.8910 hn        1 MOL      0.349693
    126 H52         7.4880    1.3030   -0.7790 h1        1 MOL     -0.081196
    127 H53         7.9830    2.6450    1.9760 hc        1 MOL      0.125447
    128 H54         6.6730    3.0120    0.8040 hc        1 MOL      0.125447
    129 H55        10.1330    3.5980    1.5910 ha        1 MOL      0.147327
    130 H56         6.9570    4.1390   -1.3160 ha        1 MOL      0.147327
    131 H57        11.7100    4.8230   -0.0020 ha        1 MOL      0.112428
    132 H58         8.4290    5.7730   -2.5900 ha        1 MOL      0.112428
    133 H59        10.6960    6.2320   -1.8360 ha        1 MOL      0.102875
    134 N12         9.9810    0.5340   -0.6910 n         1 MOL      0.047731
    135 C45         9.6780    1.0080   -2.0540 c3        1 MOL      0.074148
    136 C46         8.6940   -0.0010   -2.7410 c         1 MOL      0.521173
    137 O20         7.8000    0.4400   -3.4460 o         1 MOL     -0.580403
    138 C47        10.9910    1.0760   -2.8060 c3        1 MOL     -0.128652
    139 C48        11.8970    0.1360   -2.0010 c3        1 MOL     -0.198587
    140 C49        11.3570    0.1200   -0.5630 c3        1 MOL      0.143186
    141 H60         9.2580    2.0030   -1.9650 h1        1 MOL      0.038061
    142 H61        10.7860    0.6830   -3.7960 hc        1 MOL      0.050823
    143 H62        11.3210    2.1220   -2.8490 hc        1 MOL      0.050823
    144 H63        11.8000   -0.8880   -2.3590 hc        1 MOL      0.059769
    145 H64        12.9460    0.4230   -1.9370 hc        1 MOL      0.059769
    146 H65        11.5140   -0.8330   -0.0480 h1        1 MOL      0.001802
    147 H66        11.9940    0.8500   -0.0580 h1        1 MOL      0.001802
    148 N13         8.7360   -1.3020   -2.4550 n         1 MOL     -0.393949
    149 C50         7.7450   -2.2910   -2.7100 c3        1 MOL      0.123578
    150 C51         7.9830   -2.7870   -4.2130 c         1 MOL      0.369967
    151 O21         8.8960   -3.5560   -4.5420 o         1 MOL     -0.575171
    152 C52         7.8830   -3.4670   -1.7300 c3        1 MOL     -0.048079
    153 C53         7.3420   -3.0540   -0.3820 c3        1 MOL      0.124557
    154 C54         7.4900   -4.1770    0.6730 c         1 MOL      0.666041
    155 O22         7.7190   -3.8840    1.8740 o         1 MOL     -0.724121
    156 O23         7.4680   -5.3350    0.2400 o         1 MOL     -0.724121
    157 H67         9.4470   -1.5440   -1.7770 hn        1 MOL      0.272602
    158 H68         6.7100   -1.9250   -2.6610 h1        1 MOL      0.110967
    159 H69         8.9190   -3.8120   -1.6060 hc        1 MOL      0.018138
    160 H70         7.3460   -4.3250   -2.1320 hc        1 MOL      0.018138
    161 H71         6.3360   -2.6480   -0.4610 hc        1 MOL     -0.116339
    162 H72         7.9350   -2.2330    0.0080 hc        1 MOL     -0.116339
    163 N14         7.1950   -2.3320   -5.1940 n         1 MOL     -0.241273
    164 C55         6.0080   -1.4910   -5.1920 c3        1 MOL     -0.167122
    165 H73         6.1920   -0.6050   -4.5840 h1        1 MOL      0.076141
    166 H74         5.7740   -1.1880   -6.2130 h1        1 MOL      0.076141
    167 H75         5.1680   -2.0470   -4.7770 h1        1 MOL      0.076141
    168 H76         7.3750   -2.6700   -6.1300 hn        1 MOL      0.230731
    169 Ca1        -5.2540    1.1030   -1.9260 Ca        1 MOL      1.727279
    170 O24        -3.1130    2.3660   -3.0110 oh        1 MOL     -0.825408
    171 H77        -3.1350    3.2260   -3.4370 ho        1 MOL      0.414236
    172 H78        -2.1840    2.1350   -2.9990 ho        1 MOL      0.414236
    173 O25        -4.5630   -0.1580   -4.1800 oh        1 MOL     -0.825408
    174 H79        -3.8640   -0.7530   -4.4310 ho        1 MOL      0.414236
    175 H80        -5.1100   -0.0940   -4.9600 ho        1 MOL      0.414236
    176 O26        -6.1080    3.3850   -2.8570 oh        1 MOL     -0.825408
    177 H81        -5.6600    4.1350   -3.2480 ho        1 MOL      0.414236
    178 H82        -7.0170    3.6740   -2.7500 ho        1 MOL      0.414236
    179 O27        -2.9900    0.2300   -0.8100 oh        1 MOL     -0.825408
    180 H83        -2.9770    0.1720    0.1430 ho        1 MOL      0.414236
    181 H84        -2.2460   -0.2940   -1.0960 ho        1 MOL      0.414236
@<TRIPOS>BOND
     1    1    2 1   
     2    1    4 1   
     3    1    5 1   
     4    1    6 1   
     5    2    3 2   
     6    2    7 1   
     7    7    8 1   
     8    7   15 1   
     9    8    9 1   
    10    8   11 1   
    11    8   16 1   
    12    9   10 2   
    13    9   19 1   
    14   11   12 1   
    15   11   17 1   
    16   11   18 1   
    17   12   13 1   
    18   12   14 1   
    19   19   20 1   
    20   19   24 1   
    21   20   21 1   
    22   20   23 1   
    23   20   25 1   
    24   21   22 2   
    25   21   29 1   
    26   23   26 1   
    27   23   27 1   
    28   23   28 1   
    29   29   30 1   
    30   29   37 1   
    31   30   31 1   
    32   30   33 1   
    33   30   38 1   
    34   31   32 2   
    35   31   41 1   
    36   33   34 1   
    37   33   39 1   
    38   33   40 1   
    39   34   35 1   
    40   34   36 1   
    41   41   42 1   
    42   41   45 1   
    43   42   43 1   
    44   42   46 1   
    45   42   47 1   
    46   43   44 2   
    47   43   48 1   
    48   48   49 1   
    49   48   56 1   
    50   49   50 1   
    51   49   52 1   
    52   49   57 1   
    53   50   51 2   
    54   50   62 1   
    55   52   53 1   
    56   52   58 1   
    57   52   59 1   
    58   53   54 1   
    59   53   55 2   
    60   54   60 1   
    61   54   61 1   
    62   62   63 1   
    63   62   66 1   
    64   63   64 1   
    65   63   67 1   
    66   63   68 1   
    67   64   65 2   
    68   64   69 1   
    69   69   70 1   
    70   69   76 1   
    71   70   71 1   
    72   70   73 1   
    73   70   77 1   
    74   71   72 2   
    75   71   83 1   
    76   73   74 1   
    77   73   75 1   
    78   73   78 1   
    79   74   80 1   
    80   74   81 1   
    81   74   82 1   
    82   75   79 1   
    83   83   84 1   
    84   83   91 1   
    85   84   85 1   
    86   84   87 1   
    87   84   92 1   
    88   85   86 2   
    89   85  102 1   
    90   87   88 1   
    91   87   89 1   
    92   87   93 1   
    93   88   90 1   
    94   88   94 1   
    95   88   95 1   
    96   89   96 1   
    97   89   97 1   
    98   89   98 1   
    99   90   99 1   
   100   90  100 1   
   101   90  101 1   
   102  102  103 1   
   103  102  110 1   
   104  103  104 1   
   105  103  106 1   
   106  103  111 1   
   107  104  105 2   
   108  104  114 1   
   109  106  107 1   
   110  106  112 1   
   111  106  113 1   
   112  107  108 1   
   113  107  109 1   
   114  114  115 1   
   115  114  125 1   
   116  115  116 1   
   117  115  118 1   
   118  115  126 1   
   119  116  117 2   
   120  116  134 1   
   121  118  119 1   
   122  118  127 1   
   123  118  128 1   
   124  119  120 ar  
   125  119  121 ar  
   126  120  122 ar  
   127  120  129 1   
   128  121  123 ar  
   129  121  130 1   
   130  122  124 ar  
   131  122  131 1   
   132  123  124 ar  
   133  123  132 1   
   134  124  133 1   
   135  134  135 1   
   136  134  140 1   
   137  135  136 1   
   138  135  138 1   
   139  135  141 1   
   140  136  137 2   
   141  136  148 1   
   142  138  139 1   
   143  138  142 1   
   144  138  143 1   
   145  139  140 1   
   146  139  144 1   
   147  139  145 1   
   148  140  146 1   
   149  140  147 1   
   150  148  149 1   
   151  148  157 1   
   152  149  150 1   
   153  149  152 1   
   154  149  158 1   
   155  150  151 2   
   156  150  163 1   
   157  152  153 1   
   158  152  159 1   
   159  152  160 1   
   160  153  154 1   
   161  153  161 1   
   162  153  162 1   
   163  154  155 1   
   164  154  156 1   
   165  163  164 1   
   166  163  168 1   
   167  164  165 1   
   168  164  166 1   
   169  164  167 1   
   170  170  171 1   
   171  170  172 1   
   172  173  174 1   
   173  173  175 1   
   174  176  177 1   
   175  176  178 1   
   176  179  180 1   
   177  179  181 1   
@<TRIPOS>SUBSTRUCTURE
     1 MOL         1 TEMP              0 ****  ****    0 ROOT
