@<TRIPOS>MOLECULE
MOL
  178   175     1     0     0
SMALL
resp


@<TRIPOS>ATOM
      1 C1          2.2820   -2.4790    4.5290 c3        1 MOL     -0.306739
      2 C2          3.7180   -2.3150    3.9370 c         1 MOL      0.637854
      3 O1          4.2790   -1.2250    3.9120 o         1 MOL     -0.608121
      4 H1          1.6140   -1.7540    4.0640 hc        1 MOL      0.079303
      5 H2          1.9200   -3.4870    4.3310 hc        1 MOL      0.079303
      6 H3          2.3110   -2.3070    5.6050 hc        1 MOL      0.079303
      7 N1          4.2410   -3.4510    3.4810 n         1 MOL     -0.590839
      8 C3          5.5070   -3.6870    2.7750 c3        1 MOL      0.417275
      9 C4          5.3290   -3.5050    1.2280 c         1 MOL      0.593443
     10 O2          4.3320   -3.8530    0.5260 o         1 MOL     -0.545854
     11 C5          6.1430   -5.0140    3.2250 c3        1 MOL     -0.453503
     12 C6          5.3880   -6.2610    2.9060 c         1 MOL      0.770164
     13 O3          4.1820   -6.3140    2.5400 o         1 MOL     -0.717412
     14 O4          5.9610   -7.3920    3.1300 o         1 MOL     -0.717412
     15 H4          3.7150   -4.2620    3.7750 hn        1 MOL      0.308562
     16 H5          6.2690   -2.9700    3.0980 h1        1 MOL     -0.037500
     17 H6          6.3520   -4.9000    4.2910 hc        1 MOL      0.085791
     18 H7          7.0840   -5.1010    2.6770 hc        1 MOL      0.085791
     19 N2          6.3010   -2.8260    0.6790 n         1 MOL     -0.674656
     20 C7          6.4800   -2.5000   -0.7370 c3        1 MOL      0.353041
     21 C8          5.6020   -1.3050   -1.0870 c         1 MOL      0.527274
     22 O5          5.0620   -0.6780   -0.1790 o         1 MOL     -0.499825
     23 C9          8.0080   -2.3690   -1.0540 c3        1 MOL     -0.363598
     24 H8          7.0590   -2.5890    1.3060 hn        1 MOL      0.321281
     25 H9          6.0710   -3.2860   -1.3760 h1        1 MOL      0.059830
     26 H10         8.1910   -2.4300   -2.1310 hc        1 MOL      0.086870
     27 H11         8.4610   -1.4340   -0.7340 hc        1 MOL      0.086870
     28 H12         8.5940   -3.1450   -0.5750 hc        1 MOL      0.086870
     29 N3          5.4170   -1.1130   -2.4120 n         1 MOL     -0.649289
     30 C10         4.3460   -0.2740   -2.9800 c3        1 MOL     -0.039056
     31 C11         4.8880    0.8930   -3.7570 c         1 MOL      0.528481
     32 O6          4.1520    1.5440   -4.5190 o         1 MOL     -0.507831
     33 C12         3.4550   -1.1820   -3.9190 c3        1 MOL     -0.154012
     34 C13         2.9450   -2.4680   -3.2740 c         1 MOL      0.794602
     35 O7          2.3830   -2.4350   -2.1760 o         1 MOL     -0.737730
     36 O8          3.2620   -3.5540   -3.7220 o         1 MOL     -0.737730
     37 H13         6.0310   -1.5550   -3.0820 hn        1 MOL      0.354042
     38 H14         3.6750    0.1290   -2.2200 h1        1 MOL      0.134478
     39 H15         4.0170   -1.4370   -4.8160 hc        1 MOL      0.027538
     40 H16         2.6530   -0.5870   -4.3490 hc        1 MOL      0.027538
     41 N4          6.0610    1.4050   -3.3630 n         1 MOL     -0.362288
     42 C14         6.7010    2.7430   -3.6280 c3        1 MOL     -0.193457
     43 C15         5.8340    3.9200   -3.3190 c         1 MOL      0.634591
     44 O9          6.3090    5.1080   -3.3520 o         1 MOL     -0.600614
     45 H17         6.4840    0.7990   -2.6710 hn        1 MOL      0.260706
     46 H18         7.0470    2.7940   -4.6570 h1        1 MOL      0.119533
     47 H19         7.5670    2.7790   -2.9580 h1        1 MOL      0.119533
     48 N5          4.5600    3.8190   -2.9300 n         1 MOL     -0.451986
     49 C16         3.7360    5.0680   -2.6600 c3        1 MOL      0.235617
     50 C17         3.6040    5.4650   -1.2150 c         1 MOL      0.488544
     51 O10         4.3710    4.9000   -0.3350 o         1 MOL     -0.522787
     52 C18         2.3690    4.8540   -3.2380 c3        1 MOL     -0.431497
     53 C19         2.2870    4.5690   -4.7130 c         1 MOL      0.769886
     54 N6          1.3690    3.7080   -5.1770 n         1 MOL     -0.884522
     55 O11         2.9690    5.1060   -5.5190 o         1 MOL     -0.563035
     56 H20         4.1370    2.9150   -2.7480 hn        1 MOL      0.310644
     57 H21         4.2010    5.9430   -3.1180 h1        1 MOL      0.064762
     58 H22         1.7720    5.7400   -3.0330 hc        1 MOL      0.114388
     59 H23         1.8480    4.0910   -2.6590 hc        1 MOL      0.114388
     60 H24         0.8800    3.1160   -4.5180 hn        1 MOL      0.389140
     61 H25         1.2160    3.6830   -6.1690 hn        1 MOL      0.389140
     62 N7          2.6560    6.3270   -0.7340 n         1 MOL     -0.459273
     63 C20         2.4920    6.6130    0.7460 c3        1 MOL     -0.055125
     64 C21         1.0050    6.5920    1.1030 c         1 MOL      0.643414
     65 O12         0.1450    6.3900    0.2590 o         1 MOL     -0.543639
     66 H26         2.0690    6.9150   -1.3000 hn        1 MOL      0.292248
     67 H27         2.8570    7.5900    1.0430 h1        1 MOL      0.081164
     68 H28         2.9750    5.8370    1.3430 h1        1 MOL      0.081164
     69 N8          0.6050    6.8550    2.3470 n         1 MOL     -0.414412
     70 C22        -0.8040    7.2360    2.6740 c3        1 MOL     -0.424845
     71 C23        -1.7200    5.9710    2.9120 c         1 MOL      0.614742
     72 O13        -2.8970    6.2160    3.2010 o         1 MOL     -0.532374
     73 C24        -0.8100    8.1570    3.9100 c3        1 MOL      0.560662
     74 C25        -0.4880    7.3640    5.1980 c3        1 MOL     -0.338917
     75 O14        -0.0320    9.2510    3.8330 oh        1 MOL     -0.629235
     76 H29         1.3250    6.9560    3.0420 hn        1 MOL      0.241046
     77 H30        -1.2250    7.7710    1.8140 h1        1 MOL      0.197149
     78 H31        -1.7980    8.5840    4.0830 h1        1 MOL      0.011331
     79 H32         0.8880    8.9640    3.8110 ho        1 MOL      0.375083
     80 H33        -1.3730    7.0300    5.7310 hc        1 MOL      0.075356
     81 H34         0.0700    6.4610    4.9470 hc        1 MOL      0.075356
     82 H35         0.1110    7.9310    5.9200 hc        1 MOL      0.075356
     83 N9         -1.1140    4.7140    2.8500 n         1 MOL     -0.404133
     84 C26        -1.8560    3.4320    2.9820 c3        1 MOL      0.143982
     85 C27        -1.3960    2.5270    1.7990 c         1 MOL      0.453984
     86 O15        -0.2390    2.5810    1.3820 o         1 MOL     -0.462248
     87 C28        -1.6250    2.8250    4.3710 c3        1 MOL     -0.010235
     88 C29        -2.0740    3.7640    5.5610 c3        1 MOL     -0.128337
     89 C30        -2.1780    1.4380    4.6290 c3        1 MOL      0.018486
     90 C31        -3.5940    3.9730    5.6370 c3        1 MOL     -0.101845
     91 H36        -0.1750    4.5340    2.5210 hn        1 MOL      0.228502
     92 H37        -2.9000    3.6690    2.7990 h1        1 MOL      0.043742
     93 H38        -0.5460    2.6610    4.3620 hc        1 MOL      0.039264
     94 H39        -1.6090    4.7410    5.4400 hc        1 MOL      0.052630
     95 H40        -1.8180    3.3650    6.5430 hc        1 MOL      0.052630
     96 H41        -1.6990    0.6240    4.0690 hc        1 MOL     -0.000316
     97 H42        -1.9300    1.0950    5.6300 hc        1 MOL     -0.000316
     98 H43        -3.2400    1.4720    4.3930 hc        1 MOL     -0.000316
     99 H44        -3.8070    4.7320    6.3900 hc        1 MOL      0.027205
    100 H45        -4.0360    4.3680    4.7290 hc        1 MOL      0.027205
    101 H46        -4.0660    3.0500    5.9900 hc        1 MOL      0.027205
    102 N10        -2.2040    1.5450    1.3180 n         1 MOL     -0.571374
    103 C32        -1.7780    0.4100    0.5430 c3        1 MOL      0.366451
    104 C33        -2.9220   -0.0020   -0.4510 c         1 MOL      0.387746
    105 O16        -2.9000   -1.1320   -0.9160 o         1 MOL     -0.401437
    106 C34        -1.2920   -0.6940    1.4620 c3        1 MOL     -0.195266
    107 C35        -0.3510   -1.7450    0.8510 c         1 MOL      0.706976
    108 O17         0.0890   -1.5920   -0.3010 o         1 MOL     -0.724095
    109 O18         0.0160   -2.7300    1.5240 o         1 MOL     -0.724095
    110 H47        -3.1310    1.5150    1.7190 hn        1 MOL      0.266846
    111 H48        -0.9970    0.7430   -0.1380 h1        1 MOL      0.026143
    112 H49        -2.1730   -1.2290    1.8090 hc        1 MOL      0.048725
    113 H50        -0.8720   -0.2880    2.3790 hc        1 MOL      0.048725
    114 N11        -3.8490    0.8980   -0.7360 n         1 MOL     -0.398972
    115 C36        -5.0350    0.6130   -1.5180 c3        1 MOL      0.257198
    116 C37        -5.8310   -0.6510   -1.0140 c         1 MOL      0.245411
    117 O19        -6.3600   -0.6450    0.0800 o         1 MOL     -0.512503
    118 C38        -5.9760    1.8490   -1.5660 c3        1 MOL     -0.249934
    119 C39        -7.0570    1.6950   -2.5730 ca        1 MOL      0.170226
    120 C40        -8.2900    1.1490   -2.2430 ca        1 MOL     -0.248209
    121 C41        -6.8120    1.9970   -3.9640 ca        1 MOL     -0.248209
    122 C42        -9.1500    0.6780   -3.1610 ca        1 MOL     -0.080561
    123 C43        -7.7570    1.5470   -4.9550 ca        1 MOL     -0.080561
    124 C44        -8.8840    0.8700   -4.5480 ca        1 MOL     -0.099658
    125 H51        -3.8330    1.8660   -0.4470 hn        1 MOL      0.227123
    126 H52        -4.7460    0.4630   -2.5640 h1        1 MOL     -0.025092
    127 H53        -5.4700    2.7980   -1.7500 hc        1 MOL      0.090014
    128 H54        -6.4380    1.9550   -0.5840 hc        1 MOL      0.090014
    129 H55        -8.5370    1.0030   -1.2010 ha        1 MOL      0.149721
    130 H56        -5.8210    2.3510   -4.2310 ha        1 MOL      0.149721
    131 H57       -10.1130    0.2900   -2.8830 ha        1 MOL      0.105106
    132 H58        -7.6120    1.8680   -5.9780 ha        1 MOL      0.105106
    133 H59        -9.5380    0.5760   -5.3540 ha        1 MOL      0.087127
    134 N12        -6.0430   -1.6450   -1.9210 n         1 MOL      0.068325
    135 C45        -6.9230   -2.7920   -1.7330 c3        1 MOL      0.130213
    136 C46        -6.4660   -3.6990   -0.5850 c         1 MOL      0.193044
    137 O20        -7.2880   -4.4530   -0.1050 o         1 MOL     -0.501148
    138 C47        -6.9970   -3.5270   -3.0520 c3        1 MOL     -0.022542
    139 C48        -5.6900   -3.1210   -3.7580 c3        1 MOL     -0.034487
    140 C49        -5.5390   -1.7130   -3.2990 c3        1 MOL     -0.271428
    141 H60        -7.9540   -2.5450   -1.4560 h1        1 MOL      0.032625
    142 H61        -7.2430   -4.5910   -2.9660 hc        1 MOL      0.019037
    143 H62        -7.8690   -3.0960   -3.5490 hc        1 MOL      0.019037
    144 H63        -4.9650   -3.8210   -3.3220 hc        1 MOL      0.040160
    145 H64        -5.8000   -3.2010   -4.8390 hc        1 MOL      0.040160
    146 H65        -4.4690   -1.4830   -3.3130 h1        1 MOL      0.111823
    147 H66        -6.2280   -1.1600   -3.9370 h1        1 MOL      0.111823
    148 N13        -5.1630   -3.7080   -0.2820 n         1 MOL      0.043799
    149 C50        -4.4710   -4.5770    0.7310 c3        1 MOL     -0.448637
    150 C51        -4.7540   -4.2080    2.2540 c         1 MOL      0.558483
    151 O21        -4.6740   -5.1530    3.0800 o         1 MOL     -0.531847
    152 C52        -2.9900   -4.4770    0.4520 c3        1 MOL      0.387680
    153 C53        -2.4770   -5.1800   -0.8010 c3        1 MOL     -0.326693
    154 C54        -0.9410   -5.0230   -0.7500 c         1 MOL      0.809242
    155 O22        -0.3880   -4.4940   -1.7160 o         1 MOL     -0.747057
    156 O23        -0.2880   -5.4890    0.1880 o         1 MOL     -0.747057
    157 H67        -4.6160   -2.9990   -0.7540 hn        1 MOL      0.147931
    158 H68        -4.7010   -5.6120    0.4890 h1        1 MOL      0.180959
    159 H69        -2.4130   -4.8420    1.3000 hc        1 MOL     -0.047285
    160 H70        -2.6820   -3.4280    0.4370 hc        1 MOL     -0.047285
    161 H71        -2.9050   -4.7160   -1.6910 hc        1 MOL      0.033819
    162 H72        -2.6770   -6.2450   -0.7100 hc        1 MOL      0.033819
    163 N14        -5.0980   -2.9490    2.6150 n         1 MOL     -0.254103
    164 C55        -5.3370   -2.6350    4.0480 c3        1 MOL     -0.406297
    165 H73        -6.2460   -3.1350    4.3820 h1        1 MOL      0.144497
    166 H74        -4.4920   -2.9830    4.6430 h1        1 MOL      0.144497
    167 H75        -5.4480   -1.5580    4.1710 h1        1 MOL      0.144497
    168 H76        -5.0800   -2.1910    1.9410 hn        1 MOL      0.261085
    169 Ca1         1.6900   -3.6000   -0.0700 Ca        1 MOL      1.645591
    170 O24         2.7820   -1.4450    1.1020 oh        1 MOL     -0.798742
    171 H77         3.6150   -1.3300    0.6450 ho        1 MOL      0.398852
    172 H78         2.4920   -0.5410    1.2940 ho        1 MOL      0.398852
    173 O25         2.7890   -5.9290   -0.8640 oh        1 MOL     -0.798742
    174 H79         2.2840   -6.2070   -1.6210 ho        1 MOL      0.398852
    175 H80         3.6940   -6.1960   -1.0530 ho        1 MOL      0.398852
    176 O26         2.0320   -4.8560    2.1430 oh        1 MOL     -0.798742
    177 H81         2.8440   -5.3620    2.1070 ho        1 MOL      0.398852
    178 H82         1.4060   -5.4420    2.5740 ho        1 MOL      0.398852
@<TRIPOS>BOND
     1    1    2 1   
     2    1    4 1   
     3    1    5 1   
     4    1    6 1   
     5    2    3 2   
     6    2    7 1   
     7    7    8 1   
     8    7   15 1   
     9    8    9 1   
    10    8   11 1   
    11    8   16 1   
    12    9   10 2   
    13    9   19 1   
    14   11   12 1   
    15   11   17 1   
    16   11   18 1   
    17   12   13 1   
    18   12   14 1   
    19   19   20 1   
    20   19   24 1   
    21   20   21 1   
    22   20   23 1   
    23   20   25 1   
    24   21   22 2   
    25   21   29 1   
    26   23   26 1   
    27   23   27 1   
    28   23   28 1   
    29   29   30 1   
    30   29   37 1   
    31   30   31 1   
    32   30   33 1   
    33   30   38 1   
    34   31   32 2   
    35   31   41 1   
    36   33   34 1   
    37   33   39 1   
    38   33   40 1   
    39   34   35 1   
    40   34   36 1   
    41   41   42 1   
    42   41   45 1   
    43   42   43 1   
    44   42   46 1   
    45   42   47 1   
    46   43   44 2   
    47   43   48 1   
    48   48   49 1   
    49   48   56 1   
    50   49   50 1   
    51   49   52 1   
    52   49   57 1   
    53   50   51 2   
    54   50   62 1   
    55   52   53 1   
    56   52   58 1   
    57   52   59 1   
    58   53   54 1   
    59   53   55 2   
    60   54   60 1   
    61   54   61 1   
    62   62   63 1   
    63   62   66 1   
    64   63   64 1   
    65   63   67 1   
    66   63   68 1   
    67   64   65 2   
    68   64   69 1   
    69   69   70 1   
    70   69   76 1   
    71   70   71 1   
    72   70   73 1   
    73   70   77 1   
    74   71   72 2   
    75   71   83 1   
    76   73   74 1   
    77   73   75 1   
    78   73   78 1   
    79   74   80 1   
    80   74   81 1   
    81   74   82 1   
    82   75   79 1   
    83   83   84 1   
    84   83   91 1   
    85   84   85 1   
    86   84   87 1   
    87   84   92 1   
    88   85   86 2   
    89   85  102 1   
    90   87   88 1   
    91   87   89 1   
    92   87   93 1   
    93   88   90 1   
    94   88   94 1   
    95   88   95 1   
    96   89   96 1   
    97   89   97 1   
    98   89   98 1   
    99   90   99 1   
   100   90  100 1   
   101   90  101 1   
   102  102  103 1   
   103  102  110 1   
   104  103  104 1   
   105  103  106 1   
   106  103  111 1   
   107  104  105 2   
   108  104  114 1   
   109  106  107 1   
   110  106  112 1   
   111  106  113 1   
   112  107  108 1   
   113  107  109 1   
   114  114  115 1   
   115  114  125 1   
   116  115  116 1   
   117  115  118 1   
   118  115  126 1   
   119  116  117 2   
   120  116  134 1   
   121  118  119 1   
   122  118  127 1   
   123  118  128 1   
   124  119  120 ar  
   125  119  121 ar  
   126  120  122 ar  
   127  120  129 1   
   128  121  123 ar  
   129  121  130 1   
   130  122  124 ar  
   131  122  131 1   
   132  123  124 ar  
   133  123  132 1   
   134  124  133 1   
   135  134  135 1   
   136  134  140 1   
   137  135  136 1   
   138  135  138 1   
   139  135  141 1   
   140  136  137 2   
   141  136  148 1   
   142  138  139 1   
   143  138  142 1   
   144  138  143 1   
   145  139  140 1   
   146  139  144 1   
   147  139  145 1   
   148  140  146 1   
   149  140  147 1   
   150  148  149 1   
   151  148  157 1   
   152  149  150 1   
   153  149  152 1   
   154  149  158 1   
   155  150  151 2   
   156  150  163 1   
   157  152  153 1   
   158  152  159 1   
   159  152  160 1   
   160  153  154 1   
   161  153  161 1   
   162  153  162 1   
   163  154  155 1   
   164  154  156 1   
   165  163  164 1   
   166  163  168 1   
   167  164  165 1   
   168  164  166 1   
   169  164  167 1   
   170  170  171 1   
   171  170  172 1   
   172  173  174 1   
   173  173  175 1   
   174  176  177 1   
   175  176  178 1   
@<TRIPOS>SUBSTRUCTURE
     1 MOL         1 TEMP              0 ****  ****    0 ROOT
