@<TRIPOS>MOLECULE
MOL
  192   187     1     0     0
SMALL
resp


@<TRIPOS>ATOM
      1 C1         -4.7900   -4.3890    2.1500 c3        1 MOL     -0.418447
      2 C2         -3.4670   -4.1720    1.3340 c         1 MOL      0.732857
      3 O1         -3.0550   -3.0510    1.2780 o         1 MOL     -0.492274
      4 H1         -5.0130   -5.4550    2.2030 hc        1 MOL      0.086795
      5 H2         -4.6650   -3.9940    3.1580 hc        1 MOL      0.086795
      6 H3         -5.6120   -3.8720    1.6550 hc        1 MOL      0.086795
      7 N1         -2.8250   -5.2250    0.7300 n         1 MOL     -0.847229
      8 C3         -1.7300   -5.2200   -0.2560 c3        1 MOL     -0.379135
      9 C4         -0.3380   -4.7760    0.3180 c         1 MOL      0.790283
     10 O2          0.6290   -4.7000   -0.4450 o         1 MOL     -0.630299
     11 C5         -2.1140   -4.4550   -1.5410 c3        1 MOL      0.208962
     12 C6         -3.4430   -4.9650   -2.1030 c         1 MOL      0.570863
     13 O3         -4.2450   -4.0700   -2.5100 o         1 MOL     -0.677354
     14 O4         -3.6190   -6.1700   -2.3840 o         1 MOL     -0.677354
     15 H4         -3.1110   -6.1610    0.9810 hn        1 MOL      0.460712
     16 H5         -1.4860   -6.2420   -0.5310 h1        1 MOL      0.213396
     17 H6         -1.3650   -4.5240   -2.3350 hc        1 MOL      0.005987
     18 H7         -2.2210   -3.3840   -1.3640 hc        1 MOL      0.005987
     19 N2         -0.1720   -4.5190    1.6290 n         1 MOL     -0.449141
     20 C7          1.0700   -4.1640    2.2560 c3        1 MOL     -0.229291
     21 C8          2.1290   -5.3660    2.2480 c         1 MOL      0.614748
     22 O5          1.6970   -6.5460    2.1590 o         1 MOL     -0.562010
     23 C9          0.7040   -3.5860    3.6100 c3        1 MOL      0.150291
     24 C10         0.2090   -4.5580    4.6000 c3        1 MOL      0.129003
     25 C11        -0.2330   -2.3490    3.4210 c3        1 MOL     -0.018255
     26 C12         0.8750   -4.3800    5.9460 c3        1 MOL     -0.246416
     27 H8         -1.0050   -4.6910    2.1610 hn        1 MOL      0.299807
     28 H9          1.4860   -3.3180    1.7120 h1        1 MOL      0.066805
     29 H10         1.5990   -3.1920    4.0830 hc        1 MOL     -0.002764
     30 H11         0.5070   -5.5480    4.2550 hc        1 MOL     -0.018917
     31 H12        -0.8730   -4.5400    4.6230 hc        1 MOL     -0.018917
     32 H13         0.1330   -1.6110    2.7190 hc        1 MOL      0.009326
     33 H14        -1.2570   -2.5160    3.0850 hc        1 MOL      0.009326
     34 H15        -0.3940   -1.8560    4.3780 hc        1 MOL      0.009326
     35 H16         0.6320   -5.1910    6.6390 hc        1 MOL      0.047438
     36 H17         1.9460   -4.2710    5.7880 hc        1 MOL      0.047438
     37 H18         0.3350   -3.4790    6.2400 hc        1 MOL      0.047438
     38 N3          3.4940   -5.1420    2.3340 n         1 MOL     -0.499932
     39 C13         4.1200   -3.8200    2.3830 c3        1 MOL      0.189134
     40 C14         4.2640   -3.0700    1.0010 c         1 MOL      0.424010
     41 O6          4.4250   -1.8410    0.8980 o         1 MOL     -0.569684
     42 C15         5.4580   -3.7330    3.0650 c3        1 MOL     -0.256804
     43 C16         6.5360   -4.6910    2.6270 c         1 MOL      0.748435
     44 O7          6.2640   -5.3770    1.6410 o         1 MOL     -0.715933
     45 O8          7.6250   -4.7200    3.2390 o         1 MOL     -0.715933
     46 H19         4.0630   -5.9610    2.2140 hn        1 MOL      0.292271
     47 H20         3.4780   -3.1290    2.9390 h1        1 MOL      0.027191
     48 H21         5.3090   -3.8320    4.1370 hc        1 MOL      0.047020
     49 H22         5.8550   -2.7240    2.9630 hc        1 MOL      0.047020
     50 N4          4.2980   -3.8420   -0.0660 n         1 MOL     -0.169242
     51 C17         4.4480   -3.2770   -1.4480 c3        1 MOL     -0.077268
     52 C18         5.9120   -2.8730   -1.8770 c         1 MOL      0.526104
     53 O9          6.9030   -3.6050   -1.6730 o         1 MOL     -0.543720
     54 H23         4.3310   -4.8320    0.0920 hn        1 MOL      0.252962
     55 H24         3.9330   -2.3250   -1.4590 h1        1 MOL      0.060781
     56 H25         4.0210   -3.9520   -2.1960 h1        1 MOL      0.060781
     57 N5          5.9940   -1.8320   -2.6510 n         1 MOL     -0.539127
     58 C19         7.2830   -1.2300   -3.0010 c3        1 MOL      0.347109
     59 C20         8.1510   -0.6610   -1.8360 c         1 MOL      0.265897
     60 O10         9.3290   -0.3540   -2.0370 o         1 MOL     -0.527929
     61 C21         7.0260    0.0040   -3.9830 c3        1 MOL     -0.519365
     62 C22         5.7890    0.8970   -3.7480 c         1 MOL      0.813765
     63 O11         5.1390    0.8280   -2.7060 o         1 MOL     -0.710702
     64 O12         5.4460    1.6790   -4.6390 o         1 MOL     -0.710702
     65 H26         5.1900   -1.2460   -2.8340 hn        1 MOL      0.318437
     66 H27         7.9540   -1.8930   -3.5510 h1        1 MOL      0.022984
     67 H28         6.9660   -0.4100   -4.9900 hc        1 MOL      0.109305
     68 H29         7.8570    0.6760   -3.7790 hc        1 MOL      0.109305
     69 N6          7.5700   -0.5050   -0.6620 n         1 MOL     -0.061095
     70 C23         8.2010    0.2840    0.4610 c3        1 MOL     -0.335792
     71 C24         7.8080    1.7540    0.2480 c         1 MOL      0.501323
     72 O13         8.4410    2.5720    0.8790 o         1 MOL     -0.575742
     73 H30         6.6290   -0.8640   -0.5950 hn        1 MOL      0.191241
     74 H31         9.2870    0.1740    0.4600 h1        1 MOL      0.170096
     75 H32         7.7510    0.0590    1.4340 h1        1 MOL      0.170096
     76 N7          6.8180    2.1430   -0.5950 n         1 MOL     -0.022878
     77 C25         6.2840    3.5260   -0.7340 c3        1 MOL      0.290699
     78 C26         5.5860    4.0190    0.5390 c         1 MOL      0.281549
     79 O14         5.5140    5.1990    0.8660 o         1 MOL     -0.493343
     80 C27         7.3310    4.5040   -1.4450 c3        1 MOL     -0.171506
     81 C28         7.7500    4.0230   -2.8360 c3        1 MOL      0.002548
     82 C29         8.5830    5.1150   -3.5650 c         1 MOL      0.616016
     83 N8          8.9200    4.9800   -4.8380 n         1 MOL     -0.806383
     84 O15         8.9680    6.1290   -3.0040 o         1 MOL     -0.560207
     85 H33         6.4450    1.4260   -1.2160 hn        1 MOL      0.054260
     86 H34         5.4170    3.4050   -1.3950 h1        1 MOL      0.018652
     87 H35         8.2540    4.4890   -0.8590 hc        1 MOL      0.035903
     88 H36         6.8080    5.4640   -1.4200 hc        1 MOL      0.035903
     89 H37         6.9090    3.6590   -3.4130 hc        1 MOL      0.008409
     90 H38         8.2850    3.0800   -2.8140 hc        1 MOL      0.008409
     91 H39         8.5540    4.1740   -5.3200 hn        1 MOL      0.354168
     92 H40         9.6330    5.5980   -5.1690 hn        1 MOL      0.354168
     93 N9          5.0200    3.0510    1.2640 n         1 MOL     -0.074172
     94 C30         4.3150    3.1900    2.5230 c3        1 MOL     -0.219757
     95 C31         2.7600    2.9850    2.4040 c         1 MOL      0.656680
     96 O16         2.0310    3.5950    3.1570 o         1 MOL     -0.551730
     97 C32         4.9060    2.3270    3.7370 c3        1 MOL      0.282420
     98 C33         4.9680    0.8910    3.2600 c3        1 MOL     -0.136253
     99 C34         6.3040    2.7840    4.1970 c3        1 MOL     -0.136253
    100 H41         4.9320    2.1690    0.7830 hn        1 MOL      0.049045
    101 H42         4.4690    4.2310    2.7940 h1        1 MOL      0.104884
    102 H43         4.1290    2.4380    4.4850 hc        1 MOL     -0.051266
    103 H44         5.8250    0.6630    2.6310 hc        1 MOL      0.018019
    104 H45         5.0360    0.1970    4.1000 hc        1 MOL      0.018019
    105 H46         4.0090    0.5070    2.9050 hc        1 MOL      0.018019
    106 H47         7.0150    2.6080    3.3920 hc        1 MOL      0.018019
    107 H48         6.3000    3.8370    4.4710 hc        1 MOL      0.018019
    108 H49         6.5260    2.1760    5.0780 hc        1 MOL      0.018019
    109 N10         2.2750    2.2200    1.4410 n         1 MOL     -0.575019
    110 C35         0.8700    1.8130    1.3190 c3        1 MOL      0.128628
    111 C36         0.0020    2.9970    0.6560 c         1 MOL      0.518791
    112 O17         0.5500    4.0510    0.2510 o         1 MOL     -0.497007
    113 C37         0.8320    0.4420    0.6010 c3        1 MOL     -0.097742
    114 C38        -0.5370   -0.2050    0.6680 c         1 MOL      0.560607
    115 N11        -0.7070   -1.2630   -0.1060 n         1 MOL     -0.375119
    116 O18        -1.3770    0.1470    1.4750 o         1 MOL     -0.563854
    117 H50         2.9040    1.8510    0.7420 hn        1 MOL      0.312883
    118 H51         0.4890    1.6110    2.3230 h1        1 MOL      0.053097
    119 H52         1.5680   -0.2360    1.0270 hc        1 MOL      0.050851
    120 H53         1.0990    0.6280   -0.4360 hc        1 MOL      0.050851
    121 H54         0.0760   -1.5320   -0.6750 hn        1 MOL      0.243579
    122 H55        -1.5650   -1.7930   -0.0450 hn        1 MOL      0.243579
    123 N12        -1.3270    2.8700    0.4810 n         1 MOL     -0.452565
    124 C39        -2.3490    3.8800   -0.0710 c3        1 MOL     -0.002267
    125 C40        -3.7730    3.6720    0.4840 c         1 MOL      0.828638
    126 O19        -4.1020    2.6010    0.9400 o         1 MOL     -0.615154
    127 C41        -2.2630    4.0420   -1.5610 c3        1 MOL     -0.338786
    128 C42        -2.1000    2.6870   -2.2690 ca        1 MOL      0.009674
    129 C43        -3.1950    1.7860   -2.2070 ca        1 MOL     -0.088161
    130 C44        -0.8830    2.2610   -2.7680 ca        1 MOL     -0.088161
    131 C45        -3.1630    0.4520   -2.7300 ca        1 MOL     -0.342444
    132 C46        -0.7610    0.9640   -3.3650 ca        1 MOL     -0.342444
    133 C47        -1.8680    0.0860   -3.2720 ca        1 MOL      0.340883
    134 O20        -1.5340   -1.1880   -3.5390 oh        1 MOL     -0.558797
    135 H56        -1.8150    2.0310    0.7500 hn        1 MOL      0.245167
    136 H57        -2.1130    4.7950    0.4860 h1        1 MOL      0.098764
    137 H58        -1.4580    4.7050   -1.8680 hc        1 MOL      0.131280
    138 H59        -3.1940    4.5450   -1.8190 hc        1 MOL      0.131280
    139 H60        -4.1310    2.1120   -1.7690 ha        1 MOL      0.150204
    140 H61        -0.0280    2.9310   -2.7060 ha        1 MOL      0.150204
    141 H62        -3.9820   -0.2430   -2.6350 ha        1 MOL      0.194506
    142 H63         0.1710    0.6260   -3.7960 ha        1 MOL      0.194506
    143 H64        -2.2600   -1.7660   -3.7990 ho        1 MOL      0.419013
    144 N13        -4.6560    4.6640    0.3650 n         1 MOL     -0.717010
    145 C48        -6.0210    4.5730    0.7920 c3        1 MOL      0.119012
    146 C49        -6.9500    4.6020   -0.3950 c         1 MOL      0.438804
    147 O21        -7.1060    5.5890   -1.0810 o         1 MOL     -0.537333
    148 C50        -6.3190    5.7060    1.7510 c3        1 MOL      0.421639
    149 C51        -5.3870    5.6460    3.0020 c3        1 MOL     -0.397493
    150 C52        -5.4610    6.9710    3.8900 c         1 MOL      0.697448
    151 O22        -6.2610    7.1430    4.8320 o         1 MOL     -0.652134
    152 O23        -4.7940    7.9400    3.4820 o         1 MOL     -0.652134
    153 H65        -4.5370    5.3280   -0.3940 hn        1 MOL      0.342965
    154 H66        -6.1870    3.6430    1.3380 h1        1 MOL      0.096980
    155 H67        -7.3680    5.6440    2.0500 hc        1 MOL     -0.071197
    156 H68        -6.3110    6.6900    1.2870 hc        1 MOL     -0.071197
    157 H69        -4.3690    5.4410    2.6900 hc        1 MOL      0.064320
    158 H70        -5.8280    4.8140    3.5540 hc        1 MOL      0.064320
    159 N14        -7.6290    3.4860   -0.7380 n         1 MOL     -0.399031
    160 C53        -7.5140    2.1230   -0.1330 c3        1 MOL     -0.230867
    161 C54        -8.1490    1.9690    1.2520 c         1 MOL      0.408964
    162 O24        -8.8470    2.8600    1.7340 o         1 MOL     -0.469006
    163 C55        -8.1350    1.1290   -1.1350 c3        1 MOL      0.140221
    164 C56        -7.2460    0.7520   -2.3400 c3        1 MOL      0.179050
    165 C57        -8.0200   -0.2540   -3.2090 c         1 MOL      0.540931
    166 O25        -7.5330   -1.4030   -3.2080 o         1 MOL     -0.688656
    167 O26        -9.1020    0.1600   -3.7860 o         1 MOL     -0.688656
    168 H71        -8.4830    3.6360   -1.2660 hn        1 MOL      0.318379
    169 H72        -6.4650    1.8610   -0.0640 h1        1 MOL      0.132964
    170 H73        -8.9410    1.6440   -1.6500 hc        1 MOL     -0.014102
    171 H74        -8.4890    0.2000   -0.7020 hc        1 MOL     -0.014102
    172 H75        -6.3370    0.2290   -2.0430 hc        1 MOL     -0.089430
    173 H76        -7.0360    1.6500   -2.9130 hc        1 MOL     -0.089430
    174 N15        -7.7370    0.8790    1.9540 n         1 MOL     -0.345338
    175 C58        -8.1410    0.5220    3.3340 c3        1 MOL     -0.154254
    176 H77        -8.5600   -0.4850    3.3400 h1        1 MOL      0.089235
    177 H78        -7.2710    0.5580    3.9890 h1        1 MOL      0.089235
    178 H79        -8.8920    1.2280    3.6880 h1        1 MOL      0.089235
    179 H80        -7.0600    0.2650    1.5270 hn        1 MOL      0.287816
    180 Ca1        -6.7330   -3.6210   -2.1110 Ca        1 MOL      1.692198
    181 O27        -5.1570   -1.9900   -0.6040 oh        1 MOL     -0.944292
    182 H81        -4.2530   -2.0040   -0.3030 ho        1 MOL      0.438551
    183 H82        -5.5660   -1.2700   -0.1120 ho        1 MOL      0.438551
    184 O28        -7.9580   -2.5550    0.1300 oh        1 MOL     -0.944292
    185 H83        -7.8090   -2.9440    1.0000 ho        1 MOL      0.438551
    186 H84        -8.8350   -2.1780    0.1840 ho        1 MOL      0.438551
    187 O29        -6.6520   -4.0530   -4.9320 oh        1 MOL     -0.944292
    188 H85        -6.1590   -3.5650   -5.5870 ho        1 MOL      0.438551
    189 H86        -7.5550   -4.0460   -5.2570 ho        1 MOL      0.438551
    190 O30        -9.3570   -4.0100   -2.5340 oh        1 MOL     -0.944292
    191 H87       -10.0390   -3.3640   -2.3610 ho        1 MOL      0.438551
    192 H88        -9.7370   -4.5760   -3.2090 ho        1 MOL      0.438551
@<TRIPOS>BOND
     1    1    2 1   
     2    1    4 1   
     3    1    5 1   
     4    1    6 1   
     5    2    3 2   
     6    2    7 1   
     7    7    8 1   
     8    7   15 1   
     9    8    9 1   
    10    8   11 1   
    11    8   16 1   
    12    9   10 2   
    13    9   19 1   
    14   11   12 1   
    15   11   17 1   
    16   11   18 1   
    17   12   13 1   
    18   12   14 1   
    19   19   20 1   
    20   19   27 1   
    21   20   21 1   
    22   20   23 1   
    23   20   28 1   
    24   21   22 2   
    25   21   38 1   
    26   23   24 1   
    27   23   25 1   
    28   23   29 1   
    29   24   26 1   
    30   24   30 1   
    31   24   31 1   
    32   25   32 1   
    33   25   33 1   
    34   25   34 1   
    35   26   35 1   
    36   26   36 1   
    37   26   37 1   
    38   38   39 1   
    39   38   46 1   
    40   39   40 1   
    41   39   42 1   
    42   39   47 1   
    43   40   41 2   
    44   40   50 1   
    45   42   43 1   
    46   42   48 1   
    47   42   49 1   
    48   43   44 1   
    49   43   45 1   
    50   50   51 1   
    51   50   54 1   
    52   51   52 1   
    53   51   55 1   
    54   51   56 1   
    55   52   53 2   
    56   52   57 1   
    57   57   58 1   
    58   57   65 1   
    59   58   59 1   
    60   58   61 1   
    61   58   66 1   
    62   59   60 2   
    63   59   69 1   
    64   61   62 1   
    65   61   67 1   
    66   61   68 1   
    67   62   63 1   
    68   62   64 1   
    69   69   70 1   
    70   69   73 1   
    71   70   71 1   
    72   70   74 1   
    73   70   75 1   
    74   71   72 2   
    75   71   76 1   
    76   76   77 1   
    77   76   85 1   
    78   77   78 1   
    79   77   80 1   
    80   77   86 1   
    81   78   79 2   
    82   78   93 1   
    83   80   81 1   
    84   80   87 1   
    85   80   88 1   
    86   81   82 1   
    87   81   89 1   
    88   81   90 1   
    89   82   83 1   
    90   82   84 2   
    91   83   91 1   
    92   83   92 1   
    93   93   94 1   
    94   93  100 1   
    95   94   95 1   
    96   94   97 1   
    97   94  101 1   
    98   95   96 2   
    99   95  109 1   
   100   97   98 1   
   101   97   99 1   
   102   97  102 1   
   103   98  103 1   
   104   98  104 1   
   105   98  105 1   
   106   99  106 1   
   107   99  107 1   
   108   99  108 1   
   109  109  110 1   
   110  109  117 1   
   111  110  111 1   
   112  110  113 1   
   113  110  118 1   
   114  111  112 2   
   115  111  123 1   
   116  113  114 1   
   117  113  119 1   
   118  113  120 1   
   119  114  115 1   
   120  114  116 2   
   121  115  121 1   
   122  115  122 1   
   123  123  124 1   
   124  123  135 1   
   125  124  125 1   
   126  124  127 1   
   127  124  136 1   
   128  125  126 2   
   129  125  144 1   
   130  127  128 1   
   131  127  137 1   
   132  127  138 1   
   133  128  129 ar  
   134  128  130 ar  
   135  129  131 ar  
   136  129  139 1   
   137  130  132 ar  
   138  130  140 1   
   139  131  133 ar  
   140  131  141 1   
   141  132  133 ar  
   142  132  142 1   
   143  133  134 1   
   144  134  143 1   
   145  144  145 1   
   146  144  153 1   
   147  145  146 1   
   148  145  148 1   
   149  145  154 1   
   150  146  147 2   
   151  146  159 1   
   152  148  149 1   
   153  148  155 1   
   154  148  156 1   
   155  149  150 1   
   156  149  157 1   
   157  149  158 1   
   158  150  151 1   
   159  150  152 1   
   160  159  160 1   
   161  159  168 1   
   162  160  161 1   
   163  160  163 1   
   164  160  169 1   
   165  161  162 2   
   166  161  174 1   
   167  163  164 1   
   168  163  170 1   
   169  163  171 1   
   170  164  165 1   
   171  164  172 1   
   172  164  173 1   
   173  165  166 1   
   174  165  167 1   
   175  174  175 1   
   176  174  179 1   
   177  175  176 1   
   178  175  177 1   
   179  175  178 1   
   180  181  182 1   
   181  181  183 1   
   182  184  185 1   
   183  184  186 1   
   184  187  188 1   
   185  187  189 1   
   186  190  191 1   
   187  190  192 1   
@<TRIPOS>SUBSTRUCTURE
     1 MOL         1 TEMP              0 ****  ****    0 ROOT
