@<TRIPOS>MOLECULE
MOL
  189   185     1     0     0
SMALL
resp


@<TRIPOS>ATOM
      1 C1         -0.9740    8.4350   -2.0340 c3        1 MOL     -0.323196
      2 C2         -0.4540    7.0060   -1.8590 c         1 MOL      0.537217
      3 O1         -0.2630    6.1670   -2.8050 o         1 MOL     -0.574695
      4 H1         -1.1440    8.6330   -3.0930 hc        1 MOL      0.091034
      5 H2         -1.9120    8.5500   -1.4890 hc        1 MOL      0.091034
      6 H3         -0.2390    9.1400   -1.6460 hc        1 MOL      0.091034
      7 N1         -0.2390    6.5220   -0.5970 n         1 MOL     -0.173816
      8 C3          0.1290    5.1490   -0.2260 c3        1 MOL     -0.327923
      9 C4         -1.0630    4.2760    0.0150 c         1 MOL      0.740983
     10 O2         -0.7980    3.1440    0.4110 o         1 MOL     -0.498653
     11 C5          1.0500    5.2460    1.0270 c3        1 MOL     -0.194679
     12 C6          0.4480    5.9710    2.2190 c         1 MOL      0.695746
     13 O3          0.4920    7.2310    2.3300 o         1 MOL     -0.682312
     14 O4          0.0300    5.2050    3.1720 o         1 MOL     -0.682312
     15 H4         -0.1920    7.2110    0.1360 hn        1 MOL      0.152074
     16 H5          0.7180    4.6830   -1.0140 h1        1 MOL      0.186594
     17 H6          1.8580    5.9180    0.7120 hc        1 MOL      0.072116
     18 H7          1.3250    4.2600    1.4080 hc        1 MOL      0.072116
     19 N2         -2.2960    4.7170   -0.0800 n         1 MOL     -0.618248
     20 C7         -3.4530    3.9760    0.3260 c3        1 MOL      0.080875
     21 C8         -3.8020    2.9840   -0.7880 c         1 MOL      0.653610
     22 O5         -3.7790    3.3650   -1.9170 o         1 MOL     -0.575389
     23 C9         -4.5820    4.9790    0.5640 c3        1 MOL     -0.376960
     24 C10        -4.5310    5.6820    1.8430 c3        1 MOL      0.297767
     25 C11        -5.8740    6.2100    2.3110 c3        1 MOL      0.077971
     26 C12        -5.7460    7.1920    3.4900 c3        1 MOL     -0.105593
     27 N3         -5.1570    6.6090    4.7270 n4        1 MOL     -0.360623
     28 H8         -2.3860    5.6290   -0.5110 hn        1 MOL      0.305759
     29 H9         -3.2210    3.5040    1.2790 h1        1 MOL      0.105248
     30 H10        -5.4870    4.3900    0.3840 hc        1 MOL      0.098580
     31 H11        -4.4650    5.7380   -0.2120 hc        1 MOL      0.098580
     32 H12        -3.8400    6.5160    1.8170 hc        1 MOL     -0.039744
     33 H13        -4.2990    4.9530    2.6150 hc        1 MOL     -0.039744
     34 H14        -6.5160    5.3790    2.6080 hc        1 MOL     -0.004388
     35 H15        -6.4200    6.7480    1.5330 hc        1 MOL     -0.004388
     36 H16        -6.7340    7.6500    3.6190 hx        1 MOL      0.113335
     37 H17        -5.1690    8.0060    3.0520 hx        1 MOL      0.113335
     38 H18        -5.0100    7.2820    5.4670 hn        1 MOL      0.337337
     39 H19        -5.8410    5.9660    5.1290 hn        1 MOL      0.337337
     40 H20        -4.3460    6.0060    4.6440 hn        1 MOL      0.337337
     41 N4         -4.2250    1.7400   -0.5620 n         1 MOL     -0.494297
     42 C13        -4.6660    1.0750    0.6260 c3        1 MOL      0.216701
     43 C14        -5.8530    1.7820    1.3790 c         1 MOL      0.613667
     44 O6         -5.6620    2.2500    2.4940 o         1 MOL     -0.622806
     45 C15        -3.4600    0.6790    1.5070 c3        1 MOL     -0.400595
     46 C16        -2.5580   -0.1730    0.6400 c         1 MOL      0.424040
     47 O7         -3.0290   -1.2000    0.1030 o         1 MOL     -0.578135
     48 O8         -1.3300    0.0450    0.5500 o         1 MOL     -0.578135
     49 H21        -4.3090    1.1730   -1.4010 hn        1 MOL      0.265741
     50 H22        -5.1200    0.1130    0.3800 h1        1 MOL      0.017470
     51 H23        -3.8520    0.2130    2.4120 hc        1 MOL      0.151912
     52 H24        -2.9090    1.5680    1.8010 hc        1 MOL      0.151912
     53 N5         -7.0010    1.9120    0.8350 n         1 MOL     -0.494903
     54 C17        -7.4370    1.2110   -0.3890 c3        1 MOL      0.012611
     55 C18        -7.8990   -0.2250   -0.0390 c         1 MOL      0.595866
     56 O9         -8.3070   -0.4840    1.0980 o         1 MOL     -0.573562
     57 H25        -7.6850    2.4620    1.3310 hn        1 MOL      0.320031
     58 H26        -6.6650    1.1920   -1.1490 h1        1 MOL      0.041721
     59 H27        -8.3720    1.5900   -0.8050 h1        1 MOL      0.041721
     60 N6         -7.9370   -1.2400   -0.8910 n         1 MOL     -0.471531
     61 C19        -7.5130   -1.1710   -2.2870 c3        1 MOL      0.019562
     62 C20        -6.0560   -1.7280   -2.5240 c         1 MOL      0.795816
     63 O10        -5.2730   -1.1280   -3.2790 o         1 MOL     -0.666577
     64 C21        -8.5200   -2.0040   -3.1580 c3        1 MOL     -0.198369
     65 C22        -8.7940   -3.4900   -2.7600 c         1 MOL      0.707165
     66 O11        -8.4730   -3.9660   -1.6560 o         1 MOL     -0.660343
     67 O12        -9.2170   -4.2570   -3.6440 o         1 MOL     -0.660343
     68 H28        -8.2960   -2.1210   -0.5460 hn        1 MOL      0.293236
     69 H29        -7.4740   -0.1340   -2.6390 h1        1 MOL      0.045218
     70 H30        -8.1520   -1.9460   -4.1760 hc        1 MOL      0.038659
     71 H31        -9.4890   -1.5180   -3.2450 hc        1 MOL      0.038659
     72 N7         -5.7560   -2.8390   -1.9480 n         1 MOL     -0.628400
     73 C23        -4.5680   -3.6520   -2.2670 c3        1 MOL      0.364460
     74 C24        -3.9110   -4.3880   -1.1200 c         1 MOL      0.438993
     75 O13        -4.5600   -4.5060   -0.0620 o         1 MOL     -0.477702
     76 H32        -6.5590   -3.4010   -1.7050 hn        1 MOL      0.314570
     77 H33        -3.8760   -2.9390   -2.7130 h1        1 MOL     -0.043791
     78 H34        -4.7770   -4.3470   -3.0780 h1        1 MOL     -0.043791
     79 N8         -2.6500   -4.6880   -1.2390 n         1 MOL     -0.558463
     80 C25        -1.8220   -5.0870   -0.1720 c3        1 MOL      0.050384
     81 C26        -0.9130   -4.0270    0.4800 c         1 MOL      0.503678
     82 O14        -0.3680   -3.1420   -0.2190 o         1 MOL     -0.715572
     83 C27        -0.9870   -6.3490   -0.6470 c3        1 MOL      0.542802
     84 C28        -1.9180   -7.4250   -1.1850 c3        1 MOL     -0.481993
     85 O15        -0.3790   -6.8240    0.4980 oh        1 MOL     -0.662521
     86 H35        -2.2870   -4.6150   -2.1800 hn        1 MOL      0.257152
     87 H36        -2.4390   -5.5000    0.6250 h1        1 MOL      0.102143
     88 H37        -0.2270   -6.1540   -1.3950 h1        1 MOL     -0.062004
     89 H38         0.4510   -6.3480    0.5670 ho        1 MOL      0.350059
     90 H39        -1.3360   -8.3270   -1.3440 hc        1 MOL      0.134570
     91 H40        -2.7490   -7.5340   -0.4910 hc        1 MOL      0.134570
     92 H41        -2.2960   -7.1360   -2.1700 hc        1 MOL      0.134570
     93 N9         -0.7920   -4.1180    1.8020 n         1 MOL     -0.267585
     94 C29        -0.1190   -3.0730    2.6540 c3        1 MOL     -0.107333
     95 C30         1.3120   -3.5230    2.9270 c         1 MOL      0.428877
     96 O16         1.7400   -3.8730    4.0310 o         1 MOL     -0.521863
     97 C31        -0.9260   -2.6840    3.8900 c3        1 MOL      0.275755
     98 C32        -2.5450   -2.5860    3.7060 c3        1 MOL      0.001693
     99 C33        -0.3780   -1.4170    4.4970 c3        1 MOL     -0.298737
    100 C34        -3.3210   -2.6440    5.0320 c3        1 MOL     -0.389256
    101 H42        -1.3520   -4.7550    2.3510 hn        1 MOL      0.229622
    102 H43         0.0410   -2.1920    2.0410 h1        1 MOL      0.094325
    103 H44        -0.8300   -3.4440    4.6640 hc        1 MOL     -0.023094
    104 H45        -2.8590   -3.3450    2.9880 hc        1 MOL      0.055167
    105 H46        -2.8420   -1.6580    3.2270 hc        1 MOL      0.055167
    106 H47        -0.5540   -1.4160    5.5740 hc        1 MOL      0.072909
    107 H48         0.7080   -1.5120    4.4400 hc        1 MOL      0.072909
    108 H49        -0.6970   -0.4880    4.0220 hc        1 MOL      0.072909
    109 H50        -4.3660   -2.7960    4.7620 hc        1 MOL      0.097933
    110 H51        -2.9690   -3.3920    5.7320 hc        1 MOL      0.097933
    111 H52        -3.1650   -1.6690    5.5020 hc        1 MOL      0.097933
    112 N10         2.0800   -3.5960    1.8760 n         1 MOL     -0.055474
    113 C35         3.3620   -4.2600    1.8860 c3        1 MOL     -0.352042
    114 C36         4.5390   -3.3880    2.1630 c         1 MOL      0.549841
    115 O17         5.6240   -3.9600    2.4180 o         1 MOL     -0.540356
    116 C37         3.5660   -5.0260    0.5420 c3        1 MOL      0.409941
    117 C38         3.6730   -4.1210   -0.6740 c3        1 MOL     -0.308973
    118 O18         2.4320   -5.9080    0.4190 oh        1 MOL     -0.645969
    119 H53         1.6430   -3.4000    0.9860 hn        1 MOL      0.224781
    120 H54         3.3630   -5.0200    2.6590 h1        1 MOL      0.186654
    121 H55         4.4130   -5.7060    0.4460 h1        1 MOL      0.017576
    122 H56         2.4870   -6.3810   -0.4120 ho        1 MOL      0.405275
    123 H57         2.9420   -3.3170   -0.5760 hc        1 MOL      0.083848
    124 H58         4.6820   -3.7180   -0.7180 hc        1 MOL      0.083848
    125 H59         3.4650   -4.8350   -1.4710 hc        1 MOL      0.083848
    126 N11         4.3930   -2.0310    2.1200 n         1 MOL     -0.334617
    127 C39         5.4350   -0.9760    2.4880 c3        1 MOL     -0.165580
    128 C40         6.6730   -0.9210    1.6020 c         1 MOL      0.697992
    129 O19         7.4570   -1.8540    1.4570 o         1 MOL     -0.516922
    130 C41         5.9350   -1.1110    3.9930 c3        1 MOL      0.487599
    131 C42         4.8770   -1.4840    5.0580 c3        1 MOL     -0.353781
    132 O20         6.5260    0.0830    4.2700 oh        1 MOL     -0.726323
    133 H60         3.4560   -1.6650    1.9940 hn        1 MOL      0.234427
    134 H61         4.9300   -0.0090    2.4960 h1        1 MOL      0.148244
    135 H62         6.8220   -1.7320    4.0510 h1        1 MOL     -0.027270
    136 H63         7.1280    0.0460    5.0090 ho        1 MOL      0.436189
    137 H64         4.4810   -2.4740    4.8080 hc        1 MOL      0.088628
    138 H65         5.3240   -1.3140    6.0340 hc        1 MOL      0.088628
    139 H66         4.0500   -0.7830    4.9700 hc        1 MOL      0.088628
    140 N12         6.8410    0.1990    0.9130 n         1 MOL     -0.733275
    141 C43         7.7680    0.5060   -0.2120 c3        1 MOL      0.406678
    142 C44         7.1190    0.3100   -1.5900 c         1 MOL      0.617573
    143 O21         7.8480   -0.1860   -2.4580 o         1 MOL     -0.595162
    144 C45         8.4170    1.8110    0.1220 c3        1 MOL      0.010132
    145 C46         9.6260    2.0720   -0.7750 c3        1 MOL     -0.028219
    146 C47        10.8190    1.2130   -0.4020 c3        1 MOL     -0.077014
    147 C48        12.1660    1.8060   -0.9540 c3        1 MOL     -0.002245
    148 N13        13.2670    0.9450   -0.5570 n4        1 MOL     -0.098519
    149 H67         6.2110    0.9570    1.1110 hn        1 MOL      0.292803
    150 H68         8.5820   -0.2200   -0.1780 h1        1 MOL     -0.073045
    151 H69         8.7750    1.7690    1.1440 hc        1 MOL      0.007871
    152 H70         7.6560    2.5700   -0.0420 hc        1 MOL      0.007871
    153 H71         9.8310    3.1290   -0.6240 hc        1 MOL      0.015045
    154 H72         9.2650    1.8740   -1.7810 hc        1 MOL      0.015045
    155 H73        10.7010    0.3110   -0.9870 hc        1 MOL      0.072158
    156 H74        10.9010    1.1470    0.6800 hc        1 MOL      0.072158
    157 H75        12.3930    2.7940   -0.5430 hx        1 MOL      0.075122
    158 H76        12.1650    1.8900   -2.0430 hx        1 MOL      0.075122
    159 H77        12.9930    0.3710    0.2300 hn        1 MOL      0.221455
    160 H78        13.6340    0.3200   -1.2640 hn        1 MOL      0.221455
    161 H79        14.0750    1.4720   -0.2680 hn        1 MOL      0.221455
    162 N14         5.8760    0.7100   -1.8160 n         1 MOL     -0.409264
    163 C49         5.2480    0.5480   -3.1570 c3        1 MOL     -0.290808
    164 C50         5.5810    1.8500   -3.9370 c         1 MOL      0.478682
    165 O22         5.2840    2.9160   -3.4740 o         1 MOL     -0.507385
    166 C51         3.7440    0.3670   -3.0350 c3        1 MOL      0.201900
    167 C52         3.5260   -0.9670   -2.4060 c3        1 MOL      0.092437
    168 C53         2.0560   -1.1730   -2.0220 c         1 MOL      0.821040
    169 O23         1.5680   -0.6590   -0.9920 o         1 MOL     -0.849017
    170 O24         1.3000   -1.7080   -2.8200 o         1 MOL     -0.849017
    171 H80         5.3320    1.1320   -1.0810 hn        1 MOL      0.290837
    172 H81         5.7260   -0.2720   -3.7060 h1        1 MOL      0.142075
    173 H82         3.3720    0.3980   -4.0570 hc        1 MOL      0.018458
    174 H83         3.3570    1.2030   -2.4530 hc        1 MOL      0.018458
    175 H84         4.1030   -1.1930   -1.5130 hc        1 MOL     -0.068100
    176 H85         3.7350   -1.7410   -3.1440 hc        1 MOL     -0.068100
    177 N15         6.0650    1.6710   -5.1520 n         1 MOL     -0.267614
    178 C54         6.6170    2.7510   -5.9740 c3        1 MOL     -0.182889
    179 H86         6.2460    2.6570   -6.9950 h1        1 MOL      0.099337
    180 H87         6.3110    3.7140   -5.5650 h1        1 MOL      0.099337
    181 H88         7.7050    2.6870   -5.9760 h1        1 MOL      0.099337
    182 H89         6.1690    0.7040   -5.4240 hn        1 MOL      0.240463
    183 Ca1        -0.9020   -1.1120   -1.6600 Ca        1 MOL      1.764841
    184 O25        -2.9830    0.0020   -3.0560 oh        1 MOL     -0.884363
    185 H90        -2.7830    0.6030   -3.7750 ho        1 MOL      0.421294
    186 H91        -3.8770   -0.2990   -3.2370 ho        1 MOL      0.421294
    187 O26        -0.1350    1.2280   -2.7930 oh        1 MOL     -0.884363
    188 H92         0.0040    1.2130   -3.7360 ho        1 MOL      0.421294
    189 H93        -0.6140    2.0440   -2.6270 ho        1 MOL      0.421294
@<TRIPOS>BOND
     1    1    2 1   
     2    1    4 1   
     3    1    5 1   
     4    1    6 1   
     5    2    3 2   
     6    2    7 1   
     7    7    8 1   
     8    7   15 1   
     9    8    9 1   
    10    8   11 1   
    11    8   16 1   
    12    9   10 2   
    13    9   19 1   
    14   11   12 1   
    15   11   17 1   
    16   11   18 1   
    17   12   13 1   
    18   12   14 1   
    19   19   20 1   
    20   19   28 1   
    21   20   21 1   
    22   20   23 1   
    23   20   29 1   
    24   21   22 2   
    25   21   41 1   
    26   23   24 1   
    27   23   30 1   
    28   23   31 1   
    29   24   25 1   
    30   24   32 1   
    31   24   33 1   
    32   25   26 1   
    33   25   34 1   
    34   25   35 1   
    35   26   27 1   
    36   26   36 1   
    37   26   37 1   
    38   27   38 1   
    39   27   39 1   
    40   27   40 1   
    41   41   42 1   
    42   41   49 1   
    43   42   43 1   
    44   42   45 1   
    45   42   50 1   
    46   43   44 2   
    47   43   53 1   
    48   45   46 1   
    49   45   51 1   
    50   45   52 1   
    51   46   47 1   
    52   46   48 1   
    53   53   54 1   
    54   53   57 1   
    55   54   55 1   
    56   54   58 1   
    57   54   59 1   
    58   55   56 2   
    59   55   60 1   
    60   60   61 1   
    61   60   68 1   
    62   61   62 1   
    63   61   64 1   
    64   61   69 1   
    65   62   63 2   
    66   62   72 1   
    67   64   65 1   
    68   64   70 1   
    69   64   71 1   
    70   65   66 1   
    71   65   67 1   
    72   72   73 1   
    73   72   76 1   
    74   73   74 1   
    75   73   77 1   
    76   73   78 1   
    77   74   75 2   
    78   74   79 1   
    79   79   80 1   
    80   79   86 1   
    81   80   81 1   
    82   80   83 1   
    83   80   87 1   
    84   81   82 2   
    85   81   93 1   
    86   83   84 1   
    87   83   85 1   
    88   83   88 1   
    89   84   90 1   
    90   84   91 1   
    91   84   92 1   
    92   85   89 1   
    93   93   94 1   
    94   93  101 1   
    95   94   95 1   
    96   94   97 1   
    97   94  102 1   
    98   95   96 2   
    99   95  112 1   
   100   97   98 1   
   101   97   99 1   
   102   97  103 1   
   103   98  100 1   
   104   98  104 1   
   105   98  105 1   
   106   99  106 1   
   107   99  107 1   
   108   99  108 1   
   109  100  109 1   
   110  100  110 1   
   111  100  111 1   
   112  112  113 1   
   113  112  119 1   
   114  113  114 1   
   115  113  116 1   
   116  113  120 1   
   117  114  115 2   
   118  114  126 1   
   119  116  117 1   
   120  116  118 1   
   121  116  121 1   
   122  117  123 1   
   123  117  124 1   
   124  117  125 1   
   125  118  122 1   
   126  126  127 1   
   127  126  133 1   
   128  127  128 1   
   129  127  130 1   
   130  127  134 1   
   131  128  129 2   
   132  128  140 1   
   133  130  131 1   
   134  130  132 1   
   135  130  135 1   
   136  131  137 1   
   137  131  138 1   
   138  131  139 1   
   139  132  136 1   
   140  140  141 1   
   141  140  149 1   
   142  141  142 1   
   143  141  144 1   
   144  141  150 1   
   145  142  143 2   
   146  142  162 1   
   147  144  145 1   
   148  144  151 1   
   149  144  152 1   
   150  145  146 1   
   151  145  153 1   
   152  145  154 1   
   153  146  147 1   
   154  146  155 1   
   155  146  156 1   
   156  147  148 1   
   157  147  157 1   
   158  147  158 1   
   159  148  159 1   
   160  148  160 1   
   161  148  161 1   
   162  162  163 1   
   163  162  171 1   
   164  163  164 1   
   165  163  166 1   
   166  163  172 1   
   167  164  165 2   
   168  164  177 1   
   169  166  167 1   
   170  166  173 1   
   171  166  174 1   
   172  167  168 1   
   173  167  175 1   
   174  167  176 1   
   175  168  169 1   
   176  168  170 1   
   177  177  178 1   
   178  177  182 1   
   179  178  179 1   
   180  178  180 1   
   181  178  181 1   
   182  184  185 1   
   183  184  186 1   
   184  187  188 1   
   185  187  189 1   
@<TRIPOS>SUBSTRUCTURE
     1 MOL         1 TEMP              0 ****  ****    0 ROOT
