@<TRIPOS>MOLECULE
MOL
  182   178     1     0     0
SMALL
resp


@<TRIPOS>ATOM
      1 C1          0.1950   -4.6920    5.7820 c3        1 MOL     -0.506863
      2 C2          0.3850   -4.2860    4.3090 c         1 MOL      0.726492
      3 O1         -0.5660   -4.1570    3.5410 o         1 MOL     -0.574865
      4 H1          1.1590   -4.9640    6.2100 hc        1 MOL      0.149423
      5 H2         -0.2270   -3.8560    6.3390 hc        1 MOL      0.149423
      6 H3         -0.4810   -5.5460    5.8390 hc        1 MOL      0.149423
      7 N1          1.6410   -4.0030    3.9140 n         1 MOL     -0.537491
      8 C3          2.0270   -3.5840    2.5890 c3        1 MOL     -0.029995
      9 C4          2.2820   -4.7730    1.6520 c         1 MOL      0.636102
     10 O2          2.7340   -5.7710    2.0680 o         1 MOL     -0.543991
     11 C5          3.2500   -2.6370    2.7320 c3        1 MOL     -0.216544
     12 C6          3.4740   -1.6860    1.5590 c         1 MOL      0.495026
     13 O3          3.9440   -0.5660    1.7200 o         1 MOL     -0.639501
     14 O4          3.1760   -2.0120    0.3730 o         1 MOL     -0.639501
     15 H4          2.3950   -4.2910    4.5220 hn        1 MOL      0.315492
     16 H5          1.2000   -3.0150    2.1530 h1        1 MOL      0.094334
     17 H6          4.2000   -3.1730    2.7680 hc        1 MOL      0.126157
     18 H7          3.1010   -2.0090    3.6150 hc        1 MOL      0.126157
     19 N2          2.1560   -4.5890    0.3460 n         1 MOL     -0.334404
     20 C7          2.5140   -5.5570   -0.6960 c3        1 MOL     -0.105716
     21 C8          3.9730   -5.2860   -1.2510 c         1 MOL      0.561733
     22 O5          4.5850   -6.2700   -1.6500 o         1 MOL     -0.563691
     23 C9          1.4600   -5.5120   -1.8790 c3        1 MOL      0.030171
     24 C10         1.1590   -4.1320   -2.5350 c3        1 MOL     -0.044436
     25 C11         0.0370   -4.1300   -3.5630 c3        1 MOL      0.022111
     26 C12        -1.2250   -4.8150   -3.1230 c3        1 MOL      0.131400
     27 N3         -2.2190   -4.8970   -4.2380 n4        1 MOL     -0.311605
     28 H8          1.8700   -3.6870   -0.0110 hn        1 MOL      0.102107
     29 H9          2.5520   -6.5770   -0.3130 h1        1 MOL      0.132209
     30 H10         0.5840   -6.0210   -1.4710 hc        1 MOL      0.019484
     31 H11         1.7080   -6.2500   -2.6430 hc        1 MOL      0.019484
     32 H12         2.0320   -3.5830   -2.8780 hc        1 MOL      0.017245
     33 H13         0.7020   -3.5230   -1.7550 hc        1 MOL      0.017245
     34 H14         0.2040   -4.6460   -4.5110 hc        1 MOL      0.001074
     35 H15        -0.1230   -3.0870   -3.8490 hc        1 MOL      0.001074
     36 H16        -1.6480   -4.2270   -2.2980 hx        1 MOL      0.046087
     37 H17        -0.9500   -5.8470   -2.8750 hx        1 MOL      0.046087
     38 H18        -3.0380   -5.3610   -3.8700 hn        1 MOL      0.278584
     39 H19        -2.6860   -4.0180   -4.4290 hn        1 MOL      0.278584
     40 H20        -1.9120   -5.3550   -5.0790 hn        1 MOL      0.278584
     41 N4          4.4650   -4.0700   -1.2560 n         1 MOL     -0.455881
     42 C13         5.7140   -3.7520   -1.8640 c3        1 MOL      0.220989
     43 C14         6.7980   -3.1160   -0.9540 c         1 MOL      0.365932
     44 O6          8.0180   -3.4640   -1.0750 o         1 MOL     -0.528042
     45 C15         5.4130   -2.9110   -3.0820 c3        1 MOL     -0.321274
     46 C16         4.5650   -1.7160   -2.9380 c         1 MOL      0.828353
     47 O7          3.5500   -1.4990   -3.6390 o         1 MOL     -0.751734
     48 O8          4.7450   -1.0060   -1.9750 o         1 MOL     -0.751734
     49 H21         3.9080   -3.2900   -0.9470 hn        1 MOL      0.434401
     50 H22         6.2360   -4.6660   -2.1530 h1        1 MOL      0.075951
     51 H23         4.8580   -3.5190   -3.7940 hc        1 MOL      0.064554
     52 H24         6.3590   -2.7300   -3.5760 hc        1 MOL      0.064554
     53 N5          6.3330   -2.4670    0.1080 n         1 MOL     -0.014722
     54 C17         7.1910   -1.7550    1.1200 c3        1 MOL     -0.354792
     55 C18         7.6410   -0.3760    0.8490 c         1 MOL      0.670327
     56 O9          8.4900    0.0450    1.6390 o         1 MOL     -0.569329
     57 H25         5.3710   -2.1600    0.0540 hn        1 MOL     -0.097507
     58 H26         8.1300   -2.2800    1.2920 h1        1 MOL      0.164116
     59 H27         6.5840   -1.6910    2.0270 h1        1 MOL      0.164116
     60 N6          7.0190    0.3360   -0.1120 n         1 MOL     -0.378427
     61 C19         7.2500    1.7160   -0.5170 c3        1 MOL      0.305129
     62 C20         5.9690    2.6160   -0.3280 c         1 MOL      0.266515
     63 O10         4.8370    2.0930   -0.2640 o         1 MOL     -0.427917
     64 C21         7.7480    1.6450   -1.9330 c3        1 MOL     -0.276270
     65 C22         8.2820    2.8630   -2.5570 c         1 MOL      0.712198
     66 N7          8.4870    2.9520   -3.8710 n         1 MOL     -0.846676
     67 O11         8.4110    3.8780   -1.8960 o         1 MOL     -0.582104
     68 H28         6.3950   -0.2170   -0.6670 hn        1 MOL      0.204909
     69 H29         8.0280    2.1100    0.1320 h1        1 MOL      0.007469
     70 H30         6.9960    1.2340   -2.6080 hc        1 MOL      0.084268
     71 H31         8.5500    0.9170   -1.8270 hc        1 MOL      0.084268
     72 H32         8.5270    2.1590   -4.4840 hn        1 MOL      0.378160
     73 H33         8.9460    3.7950   -4.1990 hn        1 MOL      0.378160
     74 N8          6.0790    3.9140   -0.2600 n         1 MOL     -0.220449
     75 C23         5.0030    4.8780   -0.2840 c3        1 MOL     -0.059238
     76 C24         3.9370    4.6520    0.8490 c         1 MOL      0.462322
     77 O12         4.2550    4.4030    2.0200 o         1 MOL     -0.484762
     78 H34         7.0350    4.2420   -0.2080 hn        1 MOL      0.276548
     79 H35         4.4790    4.6580   -1.2100 h1        1 MOL      0.061481
     80 H36         5.3130    5.9180   -0.3290 h1        1 MOL      0.061481
     81 N9          2.6390    4.6890    0.5000 n         1 MOL     -0.335419
     82 C25         1.6100    4.3170    1.4890 c3        1 MOL      0.045117
     83 C26         1.5230    2.8230    1.6820 c         1 MOL      0.692224
     84 O13         2.3760    2.0420    1.2130 o         1 MOL     -0.541060
     85 C27         0.3100    4.8300    0.9350 c3        1 MOL     -0.031921
     86 C28         0.2610    6.1850    0.3910 ca        1 MOL      0.045822
     87 C29        -0.3910    6.4530   -0.8450 ca        1 MOL     -0.119642
     88 C30         0.7360    7.3290    1.1110 ca        1 MOL     -0.119642
     89 C31        -0.4720    7.7410   -1.4430 ca        1 MOL     -0.352453
     90 C32         0.6500    8.6370    0.5970 ca        1 MOL     -0.352453
     91 C33         0.0720    8.8360   -0.6860 ca        1 MOL      0.412496
     92 O14        -0.1280   10.1180   -1.1350 oh        1 MOL     -0.475105
     93 H37         2.3430    5.0300   -0.3920 hn        1 MOL      0.208078
     94 H38         1.8340    4.7960    2.4470 h1        1 MOL      0.066269
     95 H39        -0.5250    4.6800    1.6190 hc        1 MOL     -0.010233
     96 H40         0.0820    4.1860    0.0800 hc        1 MOL     -0.010233
     97 H41        -0.8000    5.6010   -1.3570 ha        1 MOL      0.133126
     98 H42         1.2300    7.2720    2.0690 ha        1 MOL      0.133126
     99 H43        -0.9860    7.9980   -2.3540 ha        1 MOL      0.192874
    100 H44         1.0230    9.4570    1.1970 ha        1 MOL      0.192874
    101 H45        -0.7710   10.1200   -1.8440 ho        1 MOL      0.354111
    102 N10         0.5310    2.4750    2.5020 n         1 MOL     -0.570155
    103 C34         0.0290    1.1790    2.8670 c3        1 MOL     -0.192687
    104 C35        -0.2220    0.2350    1.7060 c         1 MOL      0.785230
    105 O15         0.6640    0.0310    0.8840 o         1 MOL     -0.512904
    106 C36         0.8580    0.5900    4.0440 c3        1 MOL      0.261863
    107 C37         0.3950   -0.8070    4.4500 c3        1 MOL     -0.162689
    108 C38         1.0170    1.6010    5.2470 c3        1 MOL     -0.410088
    109 C39        -0.9710   -0.9290    5.1550 c3        1 MOL      0.030286
    110 H46         0.0230    3.2360    2.9190 hn        1 MOL      0.320274
    111 H47        -0.9310    1.3540    3.3680 h1        1 MOL      0.098538
    112 H48         1.8600    0.5540    3.6130 hc        1 MOL      0.044939
    113 H49         1.1790   -1.2470    5.0640 hc        1 MOL      0.032368
    114 H50         0.2480   -1.5250    3.6490 hc        1 MOL      0.032368
    115 H51         1.7050    2.3770    4.9230 hc        1 MOL      0.117499
    116 H52         0.0240    1.9970    5.4420 hc        1 MOL      0.117499
    117 H53         1.3650    1.0650    6.1310 hc        1 MOL      0.117499
    118 H54        -1.1200   -0.1630    5.9160 hc        1 MOL     -0.006341
    119 H55        -1.7560   -0.6720    4.4470 hc        1 MOL     -0.006341
    120 H56        -1.0650   -1.9050    5.6340 hc        1 MOL     -0.006341
    121 N11        -1.4440   -0.3170    1.5420 n         1 MOL     -0.672673
    122 C40        -1.9110   -1.1260    0.3810 c3        1 MOL      0.088875
    123 C41        -3.3660   -0.9520   -0.1380 c         1 MOL      0.505850
    124 O16        -3.7530   -1.6280   -1.1570 o         1 MOL     -0.536213
    125 C42        -1.6860   -2.6390    0.7090 c3        1 MOL      0.360204
    126 O17        -2.4050   -2.9500    1.8880 oh        1 MOL     -0.640694
    127 H57        -2.1020   -0.2380    2.3040 hn        1 MOL      0.316872
    128 H58        -1.2440   -0.9130   -0.4600 h1        1 MOL      0.036305
    129 H59        -0.6520   -2.9520    0.8900 h1        1 MOL     -0.040184
    130 H60        -1.9580   -3.1990   -0.1840 h1        1 MOL     -0.040184
    131 H61        -1.7760   -3.0750    2.5980 ho        1 MOL      0.416214
    132 N12        -4.1820   -0.1460    0.5600 n         1 MOL     -0.478116
    133 C43        -5.6110    0.0160    0.2080 c3        1 MOL      0.184142
    134 C44        -5.7960    0.8170   -1.0730 c         1 MOL      0.636554
    135 O18        -4.8840    1.4960   -1.4500 o         1 MOL     -0.605924
    136 C45        -6.4090    0.6160    1.3630 c3        1 MOL     -0.376960
    137 H62        -3.8690    0.3060    1.4140 hn        1 MOL      0.289601
    138 H63        -6.0630   -0.9640    0.0430 h1        1 MOL      0.090662
    139 H64        -5.9320    1.5770    1.5610 hc        1 MOL      0.112607
    140 H65        -7.4860    0.6760    1.2270 hc        1 MOL      0.112607
    141 H66        -6.2900   -0.0250    2.2370 hc        1 MOL      0.112607
    142 N13        -6.9010    0.7310   -1.7760 n         1 MOL     -0.583405
    143 C46        -8.0850   -0.0850   -1.5850 c3        1 MOL      0.042383
    144 C47        -9.4050    0.4440   -2.3130 c         1 MOL      0.565465
    145 O19        -9.3650    0.7310   -3.5220 o         1 MOL     -0.562647
    146 C48        -7.7920   -1.4600   -2.2080 c3        1 MOL     -0.180608
    147 H67        -6.8780    1.3330   -2.5730 hn        1 MOL      0.327696
    148 H68        -8.3600   -0.2020   -0.5390 h1        1 MOL      0.097990
    149 H69        -7.1410   -2.0700   -1.5920 hc        1 MOL      0.063480
    150 H70        -8.7510   -1.9730   -2.2940 hc        1 MOL      0.063480
    151 H71        -7.3720   -1.3490   -3.2060 hc        1 MOL      0.063480
    152 N14       -10.4880    0.7760   -1.6630 n         1 MOL     -0.425801
    153 C49       -10.9780    0.3260   -0.3610 c3        1 MOL     -0.165187
    154 C50       -10.3560    1.1440    0.7730 c         1 MOL      0.419960
    155 O20       -10.1140    0.6160    1.8430 o         1 MOL     -0.490491
    156 C51       -12.4680    0.4730   -0.3280 c3        1 MOL      0.112844
    157 C52       -13.1210   -0.6240   -1.1290 c3        1 MOL      0.026710
    158 C53       -12.6090   -1.9940   -0.7550 c         1 MOL      0.632033
    159 O21       -13.1800   -2.6880    0.0780 o         1 MOL     -0.650483
    160 O22       -11.5780   -2.4680   -1.3120 o         1 MOL     -0.650483
    161 H72       -10.9970    1.4550   -2.2110 hn        1 MOL      0.312684
    162 H73       -10.6290   -0.7050   -0.2200 h1        1 MOL      0.157453
    163 H74       -12.8010    1.3590   -0.8740 hc        1 MOL      0.003119
    164 H75       -12.9830    0.5270    0.6290 hc        1 MOL      0.003119
    165 H76       -12.9640   -0.4790   -2.1990 hc        1 MOL     -0.042992
    166 H77       -14.1820   -0.5790   -0.9040 hc        1 MOL     -0.042992
    167 N15        -9.9350    2.3920    0.5460 n         1 MOL     -0.326507
    168 C54        -9.2960    3.2980    1.5370 c3        1 MOL     -0.068507
    169 H78        -8.3200    3.6120    1.1650 h1        1 MOL      0.067799
    170 H79        -9.9260    4.1750    1.6870 h1        1 MOL      0.067799
    171 H80        -9.1720    2.7730    2.4840 h1        1 MOL      0.067799
    172 H81        -9.9470    2.6760   -0.4210 hn        1 MOL      0.221858
    173 Ca1         2.8910    0.4110   -0.6830 Ca        1 MOL      1.762108
    174 O23         3.7790    1.6530   -2.9490 oh        1 MOL     -0.902799
    175 H82         3.7120    2.5520   -3.2670 ho        1 MOL      0.435047
    176 H83         4.2280    1.1850   -3.6510 ho        1 MOL      0.435047
    177 O24         1.2540   -0.6830   -2.4670 oh        1 MOL     -0.902799
    178 H84         1.6650   -1.1720   -3.1740 ho        1 MOL      0.435047
    179 H85         0.5060   -0.2460   -2.8820 ho        1 MOL      0.435047
    180 O25         0.9960    2.1860   -1.3310 oh        1 MOL     -0.902799
    181 H86         0.0380    2.0990   -1.3110 ho        1 MOL      0.435047
    182 H87         1.1600    2.9220   -1.9180 ho        1 MOL      0.435047
@<TRIPOS>BOND
     1    1    2 1   
     2    1    4 1   
     3    1    5 1   
     4    1    6 1   
     5    2    3 2   
     6    2    7 1   
     7    7    8 1   
     8    7   15 1   
     9    8    9 1   
    10    8   11 1   
    11    8   16 1   
    12    9   10 2   
    13    9   19 1   
    14   11   12 1   
    15   11   17 1   
    16   11   18 1   
    17   12   13 1   
    18   12   14 1   
    19   19   20 1   
    20   19   28 1   
    21   20   21 1   
    22   20   23 1   
    23   20   29 1   
    24   21   22 2   
    25   21   41 1   
    26   23   24 1   
    27   23   30 1   
    28   23   31 1   
    29   24   25 1   
    30   24   32 1   
    31   24   33 1   
    32   25   26 1   
    33   25   34 1   
    34   25   35 1   
    35   26   27 1   
    36   26   36 1   
    37   26   37 1   
    38   27   38 1   
    39   27   39 1   
    40   27   40 1   
    41   41   42 1   
    42   41   49 1   
    43   42   43 1   
    44   42   45 1   
    45   42   50 1   
    46   43   44 2   
    47   43   53 1   
    48   45   46 1   
    49   45   51 1   
    50   45   52 1   
    51   46   47 1   
    52   46   48 1   
    53   53   54 1   
    54   53   57 1   
    55   54   55 1   
    56   54   58 1   
    57   54   59 1   
    58   55   56 2   
    59   55   60 1   
    60   60   61 1   
    61   60   68 1   
    62   61   62 1   
    63   61   64 1   
    64   61   69 1   
    65   62   63 2   
    66   62   74 1   
    67   64   65 1   
    68   64   70 1   
    69   64   71 1   
    70   65   66 1   
    71   65   67 2   
    72   66   72 1   
    73   66   73 1   
    74   74   75 1   
    75   74   78 1   
    76   75   76 1   
    77   75   79 1   
    78   75   80 1   
    79   76   77 2   
    80   76   81 1   
    81   81   82 1   
    82   81   93 1   
    83   82   83 1   
    84   82   85 1   
    85   82   94 1   
    86   83   84 2   
    87   83  102 1   
    88   85   86 1   
    89   85   95 1   
    90   85   96 1   
    91   86   87 ar  
    92   86   88 ar  
    93   87   89 ar  
    94   87   97 1   
    95   88   90 ar  
    96   88   98 1   
    97   89   91 ar  
    98   89   99 1   
    99   90   91 ar  
   100   90  100 1   
   101   91   92 1   
   102   92  101 1   
   103  102  103 1   
   104  102  110 1   
   105  103  104 1   
   106  103  106 1   
   107  103  111 1   
   108  104  105 2   
   109  104  121 1   
   110  106  107 1   
   111  106  108 1   
   112  106  112 1   
   113  107  109 1   
   114  107  113 1   
   115  107  114 1   
   116  108  115 1   
   117  108  116 1   
   118  108  117 1   
   119  109  118 1   
   120  109  119 1   
   121  109  120 1   
   122  121  122 1   
   123  121  127 1   
   124  122  123 1   
   125  122  125 1   
   126  122  128 1   
   127  123  124 2   
   128  123  132 1   
   129  125  126 1   
   130  125  129 1   
   131  125  130 1   
   132  126  131 1   
   133  132  133 1   
   134  132  137 1   
   135  133  134 1   
   136  133  136 1   
   137  133  138 1   
   138  134  135 2   
   139  134  142 1   
   140  136  139 1   
   141  136  140 1   
   142  136  141 1   
   143  142  143 1   
   144  142  147 1   
   145  143  144 1   
   146  143  146 1   
   147  143  148 1   
   148  144  145 2   
   149  144  152 1   
   150  146  149 1   
   151  146  150 1   
   152  146  151 1   
   153  152  153 1   
   154  152  161 1   
   155  153  154 1   
   156  153  156 1   
   157  153  162 1   
   158  154  155 2   
   159  154  167 1   
   160  156  157 1   
   161  156  163 1   
   162  156  164 1   
   163  157  158 1   
   164  157  165 1   
   165  157  166 1   
   166  158  159 1   
   167  158  160 1   
   168  167  168 1   
   169  167  172 1   
   170  168  169 1   
   171  168  170 1   
   172  168  171 1   
   173  174  175 1   
   174  174  176 1   
   175  177  178 1   
   176  177  179 1   
   177  180  181 1   
   178  180  182 1   
@<TRIPOS>SUBSTRUCTURE
     1 MOL         1 TEMP              0 ****  ****    0 ROOT
