@<TRIPOS>MOLECULE
MOL
  178   175     1     0     0
SMALL
resp


@<TRIPOS>ATOM
      1 C1          4.6430   -1.7910    3.0440 c3        1 MOL     -0.350824
      2 C2          5.8250   -0.8590    2.5160 c         1 MOL      0.608486
      3 O1          5.5760    0.1930    1.9210 o         1 MOL     -0.579634
      4 H1          4.4340   -1.5560    4.0870 hc        1 MOL      0.103310
      5 H2          3.7480   -1.6160    2.4470 hc        1 MOL      0.103310
      6 H3          4.9380   -2.8370    2.9590 hc        1 MOL      0.103310
      7 N1          7.0880   -1.2000    2.8060 n         1 MOL     -0.405070
      8 C3          8.3010   -0.5120    2.5290 c3        1 MOL      0.038713
      9 C4          8.8080   -0.5620    1.1440 c         1 MOL      0.633459
     10 O2          9.1100   -1.6570    0.6260 o         1 MOL     -0.561340
     11 C5          9.2570   -1.0570    3.6130 c3        1 MOL     -0.250136
     12 C6         10.5620   -0.2190    3.6970 c         1 MOL      0.737369
     13 O3         11.4900   -0.7290    4.3720 o         1 MOL     -0.733764
     14 O4         10.6480    0.9180    3.1340 o         1 MOL     -0.733764
     15 H4          7.1480   -1.9980    3.4110 hn        1 MOL      0.235589
     16 H5          8.0390    0.5300    2.7390 h1        1 MOL      0.049820
     17 H6          9.5590   -2.0600    3.3210 hc        1 MOL      0.052472
     18 H7          8.7140   -1.1080    4.5530 hc        1 MOL      0.052472
     19 N2          8.7630    0.5330    0.3800 n         1 MOL     -0.486425
     20 C7          8.7870    0.5510   -1.1080 c3        1 MOL      0.250408
     21 C8          7.5290    0.0310   -1.8220 c         1 MOL      0.522931
     22 O5          7.4400   -0.2000   -3.0190 o         1 MOL     -0.581196
     23 C9          9.1430    1.9390   -1.5480 c3        1 MOL     -0.267943
     24 H8          8.3000    1.3290    0.7930 hn        1 MOL      0.242288
     25 H9          9.5630   -0.1820   -1.3350 h1        1 MOL      0.050571
     26 H10         9.9760    2.2810   -0.9360 hc        1 MOL      0.066910
     27 H11         9.5340    1.9220   -2.5650 hc        1 MOL      0.066910
     28 H12         8.2860    2.6060   -1.5010 hc        1 MOL      0.066910
     29 N3          6.4520   -0.0680   -1.0020 n         1 MOL     -0.687678
     30 C10         5.1580   -0.6670   -1.2620 c3        1 MOL      0.164395
     31 C11         4.5140   -0.3450   -2.6240 c         1 MOL      0.398089
     32 O6          3.6080   -1.1040   -3.0420 o         1 MOL     -0.494457
     33 C12         5.4410   -2.1440   -1.1010 c3        1 MOL      0.216163
     34 C13         4.1680   -2.9680   -0.9440 c         1 MOL      0.540120
     35 O7          4.1980   -4.1440   -1.4010 o         1 MOL     -0.731729
     36 O8          3.1630   -2.5530   -0.3460 o         1 MOL     -0.731729
     37 H13         6.5700    0.3560   -0.1010 hn        1 MOL      0.337549
     38 H14         4.4210   -0.2650   -0.5630 h1        1 MOL      0.074376
     39 H15         6.0550   -2.3150   -0.2150 hc        1 MOL     -0.035760
     40 H16         5.9230   -2.4920   -2.0110 hc        1 MOL     -0.035760
     41 N4          4.9540    0.5710   -3.4810 n         1 MOL     -0.077265
     42 C14         4.3190    0.8200   -4.8020 c3        1 MOL     -0.348194
     43 C15         2.9790    1.5040   -4.7730 c         1 MOL      0.561748
     44 O9          2.1600    1.1950   -5.5660 o         1 MOL     -0.521163
     45 H17         5.7790    1.1000   -3.2320 hn        1 MOL      0.207893
     46 H18         4.2550   -0.1550   -5.3020 h1        1 MOL      0.140413
     47 H19         4.9800    1.5170   -5.3020 h1        1 MOL      0.140413
     48 N5          2.6850    2.2900   -3.7450 n         1 MOL     -0.303366
     49 C16         1.3960    2.8100   -3.5090 c3        1 MOL     -0.202083
     50 C17         1.4040    4.0510   -2.5410 c         1 MOL      0.624957
     51 O10         1.8860    3.8580   -1.4440 o         1 MOL     -0.485743
     52 C18         0.4850    1.7560   -2.9050 c3        1 MOL     -0.262811
     53 C19        -0.9460    2.2360   -2.8570 c         1 MOL      0.623030
     54 N6         -1.4580    2.2840   -1.6950 n         1 MOL     -0.668917
     55 O11        -1.5820    2.6400   -3.8120 o         1 MOL     -0.590083
     56 H20         3.4350    2.5370   -3.1120 hn        1 MOL      0.187577
     57 H21         0.9100    3.1370   -4.4250 h1        1 MOL      0.092387
     58 H22         0.8860    1.3560   -1.9750 hc        1 MOL      0.179824
     59 H23         0.3660    0.9320   -3.6110 hc        1 MOL      0.179824
     60 H24        -0.8080    2.1350   -0.9340 hn        1 MOL      0.310499
     61 H25        -2.1230    3.0370   -1.6660 hn        1 MOL      0.310499
     62 N7          0.7910    5.2070   -2.9170 n         1 MOL     -0.490941
     63 C20         0.6770    6.4080   -2.0170 c3        1 MOL     -0.109107
     64 C21        -0.6370    6.2590   -1.1980 c         1 MOL      0.624671
     65 O12        -1.5600    5.6330   -1.6290 o         1 MOL     -0.466061
     66 H26         0.2670    5.2820   -3.7770 hn        1 MOL      0.332788
     67 H27         0.7020    7.2740   -2.6660 h1        1 MOL      0.084812
     68 H28         1.4400    6.4090   -1.2330 h1        1 MOL      0.084812
     69 N8         -0.6970    6.9560   -0.0130 n         1 MOL     -0.483107
     70 C22        -1.9660    6.9460    0.7650 c3        1 MOL     -0.325870
     71 C23        -2.3280    5.6690    1.4950 c         1 MOL      0.615708
     72 O13        -3.5190    5.4880    1.7300 o         1 MOL     -0.583152
     73 C24        -2.1460    8.1480    1.7060 c3        1 MOL      0.575724
     74 C25        -1.1830    8.1340    2.8750 c3        1 MOL     -0.469546
     75 O14        -1.8530    9.2560    0.9350 oh        1 MOL     -0.640991
     76 H29         0.0800    7.5680    0.2130 hn        1 MOL      0.272944
     77 H30        -2.7280    7.1110    0.0120 h1        1 MOL      0.165569
     78 H31        -3.1690    8.2340    2.0510 h1        1 MOL      0.026800
     79 H32        -0.9280    9.1750    0.6960 ho        1 MOL      0.376153
     80 H33        -0.1450    8.2310    2.5810 hc        1 MOL      0.108351
     81 H34        -1.3190    8.9590    3.5690 hc        1 MOL      0.108351
     82 H35        -1.2820    7.2800    3.5470 hc        1 MOL      0.108351
     83 N9         -1.4350    4.7200    1.7840 n         1 MOL     -0.442282
     84 C26        -1.6920    3.3550    2.3240 c3        1 MOL      0.134561
     85 C27        -1.1860    2.2270    1.3840 c         1 MOL      0.531040
     86 O15        -0.1440    2.3660    0.8400 o         1 MOL     -0.489023
     87 C28        -1.0030    3.3050    3.7230 c3        1 MOL      0.102772
     88 C29        -1.5820    4.1970    4.8270 c3        1 MOL     -0.063430
     89 C30        -1.0040    1.8250    4.2100 c3        1 MOL     -0.189361
     90 C31        -3.0750    4.0600    5.0610 c3        1 MOL     -0.021771
     91 H36        -0.4740    4.9920    1.6140 hn        1 MOL      0.252649
     92 H37        -2.7740    3.2900    2.4560 h1        1 MOL      0.059269
     93 H38        -0.0000    3.6900    3.5710 hc        1 MOL     -0.003319
     94 H39        -1.4750    5.2670    4.6490 hc        1 MOL      0.020741
     95 H40        -1.1090    3.9370    5.7730 hc        1 MOL      0.020741
     96 H41        -0.3590    1.1900    3.6080 hc        1 MOL      0.050179
     97 H42        -0.5790    1.7600    5.2090 hc        1 MOL      0.050179
     98 H43        -2.0460    1.4970    4.2630 hc        1 MOL      0.050179
     99 H44        -3.3090    3.0170    5.2820 hc        1 MOL     -0.000197
    100 H45        -3.3670    4.6740    5.9150 hc        1 MOL     -0.000197
    101 H46        -3.6000    4.3750    4.1600 hc        1 MOL     -0.000197
    102 N10        -1.9770    1.1280    1.2930 n         1 MOL     -0.480820
    103 C32        -1.7750   -0.0810    0.4400 c3        1 MOL      0.255560
    104 C33        -3.1390   -0.5040   -0.1840 c         1 MOL      0.331133
    105 O16        -3.3730   -1.6980   -0.4720 o         1 MOL     -0.403945
    106 C34        -1.0210   -1.1640    1.2320 c3        1 MOL     -0.358999
    107 C35        -0.4380   -2.3090    0.4120 c         1 MOL      0.683067
    108 O17        -0.0480   -2.1420   -0.7660 o         1 MOL     -0.715971
    109 O18        -0.0670   -3.3690    1.0300 o         1 MOL     -0.715971
    110 H47        -2.8760    1.2130    1.7430 hn        1 MOL      0.228361
    111 H48        -1.0460    0.3030   -0.2720 h1        1 MOL      0.013771
    112 H49        -1.6120   -1.5530    2.0560 hc        1 MOL      0.123899
    113 H50        -0.1200   -0.7230    1.6630 hc        1 MOL      0.123899
    114 N11        -4.0880    0.4740   -0.2580 n         1 MOL     -0.274993
    115 C36        -5.3860    0.2320   -0.7980 c3        1 MOL      0.146670
    116 C37        -6.0830   -0.9180   -0.0540 c         1 MOL      0.360394
    117 O19        -6.2090   -0.8710    1.1820 o         1 MOL     -0.574344
    118 C38        -6.1700    1.5870   -0.7370 c3        1 MOL     -0.270567
    119 C39        -7.6710    1.4060   -0.9340 ca        1 MOL      0.039383
    120 C40        -8.1670    1.1040   -2.2530 ca        1 MOL     -0.111270
    121 C41        -8.5120    1.6200    0.1740 ca        1 MOL     -0.111270
    122 C42        -9.5500    0.9650   -2.3920 ca        1 MOL     -0.126557
    123 C43        -9.9340    1.4270    0.0250 ca        1 MOL     -0.126557
    124 C44       -10.3910    1.0000   -1.2540 ca        1 MOL     -0.144598
    125 H51        -3.9560    1.4230    0.0450 hn        1 MOL      0.187231
    126 H52        -5.2910   -0.0800   -1.8400 h1        1 MOL      0.037885
    127 H53        -5.8170    2.3330   -1.4500 hc        1 MOL      0.119418
    128 H54        -6.1030    1.9570    0.2870 hc        1 MOL      0.119418
    129 H55        -7.5320    0.9820   -3.1160 ha        1 MOL      0.121321
    130 H56        -8.0820    1.8680    1.1300 ha        1 MOL      0.121321
    131 H57        -9.9500    0.7630   -3.3760 ha        1 MOL      0.118082
    132 H58       -10.5330    1.4920    0.9270 ha        1 MOL      0.118082
    133 H59       -11.3760    0.5950   -1.4640 ha        1 MOL      0.106380
    134 N12        -6.6510   -1.9440   -0.7500 n         1 MOL      0.138349
    135 C45        -7.4150   -3.0730   -0.1160 c3        1 MOL     -0.180104
    136 C46        -6.6070   -4.1280    0.6820 c         1 MOL      0.408026
    137 O20        -7.2310   -4.8780    1.4250 o         1 MOL     -0.504706
    138 C47        -8.1760   -3.7440   -1.3090 c3        1 MOL     -0.187257
    139 C48        -7.1410   -3.5660   -2.3970 c3        1 MOL      0.148422
    140 C49        -6.6240   -2.1470   -2.1650 c3        1 MOL     -0.252421
    141 H60        -8.1180   -2.5900    0.5580 h1        1 MOL      0.126448
    142 H61        -8.2600   -4.8130   -1.1240 hc        1 MOL      0.079526
    143 H62        -9.0670   -3.1860   -1.6060 hc        1 MOL      0.079526
    144 H63        -6.3190   -4.2720   -2.2920 hc        1 MOL     -0.012135
    145 H64        -7.5980   -3.6470   -3.3890 hc        1 MOL     -0.012135
    146 H65        -5.6040   -2.0460   -2.5270 h1        1 MOL      0.070543
    147 H66        -7.3720   -1.5200   -2.6480 h1        1 MOL      0.070543
    148 N13        -5.2640   -4.0690    0.7650 n         1 MOL     -0.014903
    149 C50        -4.4670   -4.9080    1.6730 c3        1 MOL     -0.655557
    150 C51        -4.5070   -4.3330    3.1060 c         1 MOL      0.652069
    151 O21        -4.5550   -5.1410    4.0300 o         1 MOL     -0.556158
    152 C52        -3.0000   -5.0280    1.1550 c3        1 MOL      0.479881
    153 C53        -2.7370   -6.0260   -0.0470 c3        1 MOL     -0.081985
    154 C54        -1.2610   -6.0470   -0.4620 c         1 MOL      0.626962
    155 O22        -0.3510   -6.5450    0.2170 o         1 MOL     -0.756910
    156 O23        -0.9810   -5.3620   -1.5180 o         1 MOL     -0.756910
    157 H67        -4.7980   -3.4090    0.1570 hn        1 MOL      0.193053
    158 H68        -4.8830   -5.9160    1.5780 h1        1 MOL      0.196953
    159 H69        -2.3810   -5.4650    1.9460 hc        1 MOL     -0.051005
    160 H70        -2.6190   -4.0460    0.8960 hc        1 MOL     -0.051005
    161 H71        -3.4160   -5.7270   -0.8360 hc        1 MOL     -0.017832
    162 H72        -3.0190   -6.9980    0.3720 hc        1 MOL     -0.017832
    163 N14        -4.4300   -3.0560    3.3040 n         1 MOL     -0.333898
    164 C55        -4.2680   -2.4830    4.6660 c3        1 MOL     -0.320128
    165 H73        -3.5440   -3.0750    5.2250 h1        1 MOL      0.126452
    166 H74        -3.9130   -1.4550    4.5880 h1        1 MOL      0.126452
    167 H75        -5.2270   -2.4990    5.1840 h1        1 MOL      0.126452
    168 H76        -4.2360   -2.4710    2.5030 hn        1 MOL      0.309900
    169 Ca1         1.4960   -4.4420   -0.7930 Ca        1 MOL      1.759133
    170 O24         1.6350   -3.1590   -3.1590 oh        1 MOL     -0.789998
    171 H77         1.6210   -3.5420   -4.0400 ho        1 MOL      0.391304
    172 H78         1.9950   -2.2860   -3.2870 ho        1 MOL      0.391304
    173 O25         2.6020   -6.5850   -2.1310 oh        1 MOL     -0.789998
    174 H79         3.1120   -7.3470   -1.8530 ho        1 MOL      0.391304
    175 H80         2.5410   -6.6890   -3.0820 ho        1 MOL      0.391304
    176 O26         2.7030   -5.2030    1.5000 oh        1 MOL     -0.789998
    177 H81         3.5590   -5.4620    1.1570 ho        1 MOL      0.391304
    178 H82         2.8540   -5.0570    2.4330 ho        1 MOL      0.391304
@<TRIPOS>BOND
     1    1    2 1   
     2    1    4 1   
     3    1    5 1   
     4    1    6 1   
     5    2    3 2   
     6    2    7 1   
     7    7    8 1   
     8    7   15 1   
     9    8    9 1   
    10    8   11 1   
    11    8   16 1   
    12    9   10 2   
    13    9   19 1   
    14   11   12 1   
    15   11   17 1   
    16   11   18 1   
    17   12   13 1   
    18   12   14 1   
    19   19   20 1   
    20   19   24 1   
    21   20   21 1   
    22   20   23 1   
    23   20   25 1   
    24   21   22 2   
    25   21   29 1   
    26   23   26 1   
    27   23   27 1   
    28   23   28 1   
    29   29   30 1   
    30   29   37 1   
    31   30   31 1   
    32   30   33 1   
    33   30   38 1   
    34   31   32 2   
    35   31   41 1   
    36   33   34 1   
    37   33   39 1   
    38   33   40 1   
    39   34   35 1   
    40   34   36 1   
    41   41   42 1   
    42   41   45 1   
    43   42   43 1   
    44   42   46 1   
    45   42   47 1   
    46   43   44 2   
    47   43   48 1   
    48   48   49 1   
    49   48   56 1   
    50   49   50 1   
    51   49   52 1   
    52   49   57 1   
    53   50   51 2   
    54   50   62 1   
    55   52   53 1   
    56   52   58 1   
    57   52   59 1   
    58   53   54 1   
    59   53   55 2   
    60   54   60 1   
    61   54   61 1   
    62   62   63 1   
    63   62   66 1   
    64   63   64 1   
    65   63   67 1   
    66   63   68 1   
    67   64   65 2   
    68   64   69 1   
    69   69   70 1   
    70   69   76 1   
    71   70   71 1   
    72   70   73 1   
    73   70   77 1   
    74   71   72 2   
    75   71   83 1   
    76   73   74 1   
    77   73   75 1   
    78   73   78 1   
    79   74   80 1   
    80   74   81 1   
    81   74   82 1   
    82   75   79 1   
    83   83   84 1   
    84   83   91 1   
    85   84   85 1   
    86   84   87 1   
    87   84   92 1   
    88   85   86 2   
    89   85  102 1   
    90   87   88 1   
    91   87   89 1   
    92   87   93 1   
    93   88   90 1   
    94   88   94 1   
    95   88   95 1   
    96   89   96 1   
    97   89   97 1   
    98   89   98 1   
    99   90   99 1   
   100   90  100 1   
   101   90  101 1   
   102  102  103 1   
   103  102  110 1   
   104  103  104 1   
   105  103  106 1   
   106  103  111 1   
   107  104  105 2   
   108  104  114 1   
   109  106  107 1   
   110  106  112 1   
   111  106  113 1   
   112  107  108 1   
   113  107  109 1   
   114  114  115 1   
   115  114  125 1   
   116  115  116 1   
   117  115  118 1   
   118  115  126 1   
   119  116  117 2   
   120  116  134 1   
   121  118  119 1   
   122  118  127 1   
   123  118  128 1   
   124  119  120 ar  
   125  119  121 ar  
   126  120  122 ar  
   127  120  129 1   
   128  121  123 ar  
   129  121  130 1   
   130  122  124 ar  
   131  122  131 1   
   132  123  124 ar  
   133  123  132 1   
   134  124  133 1   
   135  134  135 1   
   136  134  140 1   
   137  135  136 1   
   138  135  138 1   
   139  135  141 1   
   140  136  137 2   
   141  136  148 1   
   142  138  139 1   
   143  138  142 1   
   144  138  143 1   
   145  139  140 1   
   146  139  144 1   
   147  139  145 1   
   148  140  146 1   
   149  140  147 1   
   150  148  149 1   
   151  148  157 1   
   152  149  150 1   
   153  149  152 1   
   154  149  158 1   
   155  150  151 2   
   156  150  163 1   
   157  152  153 1   
   158  152  159 1   
   159  152  160 1   
   160  153  154 1   
   161  153  161 1   
   162  153  162 1   
   163  154  155 1   
   164  154  156 1   
   165  163  164 1   
   166  163  168 1   
   167  164  165 1   
   168  164  166 1   
   169  164  167 1   
   170  170  171 1   
   171  170  172 1   
   172  173  174 1   
   173  173  175 1   
   174  176  177 1   
   175  176  178 1   
@<TRIPOS>SUBSTRUCTURE
     1 MOL         1 TEMP              0 ****  ****    0 ROOT
