@<TRIPOS>MOLECULE
MOL
  185   180     1     0     0
SMALL
resp


@<TRIPOS>ATOM
      1 C1         -5.8980    1.1930   -3.9940 c3        1 MOL     -0.444580
      2 C2         -6.5690    1.1970   -2.6050 c         1 MOL      0.705657
      3 O1         -5.9780    0.9300   -1.6030 o         1 MOL     -0.556233
      4 H1         -6.5430    1.7040   -4.7090 hc        1 MOL      0.124868
      5 H2         -4.9400    1.7080   -3.9370 hc        1 MOL      0.124868
      6 H3         -5.7410    0.1640   -4.3190 hc        1 MOL      0.124868
      7 N1         -7.8930    1.4310   -2.5660 n         1 MOL     -0.657038
      8 C3         -8.6760    1.5450   -1.2620 c3        1 MOL      0.198081
      9 C4         -8.4010    0.4190   -0.2010 c         1 MOL      0.464716
     10 O2         -8.3410    0.7030    0.9960 o         1 MOL     -0.516889
     11 C5         -8.4090    2.9280   -0.6630 c3        1 MOL     -0.359040
     12 C6         -8.5970    4.0610   -1.6010 c         1 MOL      0.818825
     13 O3         -7.7510    4.9470   -1.4270 o         1 MOL     -0.722939
     14 O4         -9.5350    4.1650   -2.4580 o         1 MOL     -0.722939
     15 H4         -8.3410    1.5140   -3.4690 hn        1 MOL      0.335512
     16 H5         -9.7430    1.4410   -1.4970 h1        1 MOL      0.021024
     17 H6         -7.3630    3.0860   -0.3880 hc        1 MOL      0.112818
     18 H7         -9.0010    3.0150    0.2410 hc        1 MOL      0.112818
     19 N2         -8.2810   -0.8700   -0.5550 n         1 MOL     -0.517923
     20 C7         -7.9870   -1.9920    0.4190 c3        1 MOL      0.282300
     21 C8         -6.4720   -2.3380    0.4590 c         1 MOL      0.575309
     22 O5         -6.1710   -3.4680    0.8890 o         1 MOL     -0.589528
     23 C9         -8.9240   -3.2000    0.0690 c3        1 MOL     -0.461572
     24 C10       -10.3830   -2.8190    0.3010 c3        1 MOL      0.401074
     25 C11       -11.3890   -3.8870   -0.1490 c3        1 MOL     -0.265380
     26 C12       -12.8750   -3.5160   -0.0480 c3        1 MOL     -0.239794
     27 N3        -13.2890   -2.4510   -0.9780 n4        1 MOL     -0.183229
     28 H8         -8.2700   -1.0800   -1.5460 hn        1 MOL      0.275458
     29 H9         -8.1430   -1.7010    1.4550 h1        1 MOL      0.070904
     30 H10        -8.7540   -3.9540    0.8400 hc        1 MOL      0.125020
     31 H11        -8.7420   -3.5090   -0.9690 hc        1 MOL      0.125020
     32 H12       -10.5340   -1.9270   -0.3110 hc        1 MOL     -0.058252
     33 H13       -10.5340   -2.5990    1.3510 hc        1 MOL     -0.058252
     34 H14       -11.1850   -4.7560    0.4800 hc        1 MOL      0.111770
     35 H15       -11.2390   -4.2300   -1.1670 hc        1 MOL      0.111770
     36 H16       -12.9600   -3.1400    0.9670 hx        1 MOL      0.179681
     37 H17       -13.5090   -4.3640   -0.2990 hx        1 MOL      0.179681
     38 H18       -13.0740   -2.7120   -1.9350 hn        1 MOL      0.282954
     39 H19       -14.2590   -2.2050   -0.9520 hn        1 MOL      0.282954
     40 H20       -12.8140   -1.5810   -0.7600 hn        1 MOL      0.282954
     41 N4         -5.5170   -1.4560    0.0710 n         1 MOL     -0.640407
     42 C13        -4.0190   -1.6050    0.2060 c3        1 MOL      0.028641
     43 C14        -3.6690   -2.2770    1.5660 c         1 MOL      0.630345
     44 O6         -4.0320   -1.7990    2.6260 o         1 MOL     -0.525120
     45 C15        -3.1750   -0.3420   -0.0770 c3        1 MOL     -0.072282
     46 C16        -1.7110   -0.6860   -0.3030 c         1 MOL      0.449060
     47 O7         -1.3670   -1.0590   -1.4400 o         1 MOL     -0.693004
     48 O8         -0.9200   -0.7170    0.6690 o         1 MOL     -0.693004
     49 H21        -5.8960   -0.5580   -0.1880 hn        1 MOL      0.370610
     50 H22        -3.7430   -2.4030   -0.4810 h1        1 MOL      0.093659
     51 H23        -3.2480    0.3620    0.7500 hc        1 MOL      0.113276
     52 H24        -3.4740    0.2260   -0.9590 hc        1 MOL      0.113276
     53 N5         -2.8770   -3.3440    1.5370 n         1 MOL     -0.204106
     54 C17        -2.6180   -4.0800    2.7460 c3        1 MOL     -0.192397
     55 C18        -1.5370   -3.5070    3.7240 c         1 MOL      0.486760
     56 O9         -1.3600   -3.9770    4.8530 o         1 MOL     -0.536012
     57 H25        -2.6380   -3.7010    0.6210 hn        1 MOL      0.162364
     58 H26        -2.3790   -5.1120    2.4460 h1        1 MOL      0.113032
     59 H27        -3.5480   -4.1920    3.3090 h1        1 MOL      0.113032
     60 N6         -0.9660   -2.3620    3.3100 n         1 MOL     -0.146432
     61 C19        -0.1380   -1.5740    4.1870 c3        1 MOL      0.048039
     62 C20        -0.4630   -0.0640    4.0880 c         1 MOL      0.452713
     63 O10         0.3740    0.7450    4.4970 o         1 MOL     -0.545477
     64 C21         1.3950   -1.8210    4.0640 c3        1 MOL     -0.252110
     65 C22         2.0590   -1.2960    2.7830 c         1 MOL      0.759288
     66 N7          3.2640   -0.6910    2.8060 n         1 MOL     -0.813583
     67 O11         1.5300   -1.5490    1.6890 o         1 MOL     -0.752113
     68 H28        -1.1470   -2.0240    2.3730 hn        1 MOL      0.092067
     69 H29        -0.3720   -1.8270    5.2260 h1        1 MOL      0.088924
     70 H30         1.5260   -2.9030    4.0030 hc        1 MOL      0.094817
     71 H31         1.9190   -1.5170    4.9660 hc        1 MOL      0.094817
     72 H32         3.7550   -0.7580    3.6870 hn        1 MOL      0.353872
     73 H33         3.6860   -0.2990    1.9740 hn        1 MOL      0.353872
     74 N8         -1.6150    0.2360    3.4600 n         1 MOL     -0.230433
     75 C23        -2.3130    1.5240    3.2210 c3        1 MOL     -0.038425
     76 C24        -1.6020    2.4700    2.2990 c         1 MOL      0.420297
     77 O12        -1.7520    3.6550    2.4970 o         1 MOL     -0.494923
     78 H34        -2.1350   -0.5620    3.1360 hn        1 MOL      0.092825
     79 H35        -2.6460    2.0230    4.1290 h1        1 MOL      0.092929
     80 H36        -3.2550    1.2790    2.7310 h1        1 MOL      0.092929
     81 N9         -0.7650    1.9950    1.3570 n         1 MOL     -0.248813
     82 C25         0.1230    2.8070    0.4010 c3        1 MOL      0.215583
     83 C26         1.4790    2.2070    0.0810 c         1 MOL      0.178750
     84 O13         1.6200    1.0040    0.1370 o         1 MOL     -0.288335
     85 C27        -0.6340    3.0270   -0.9180 c3        1 MOL     -0.086848
     86 C28        -1.9470    3.8720   -0.7860 ca        1 MOL      0.004682
     87 C29        -1.8690    5.2990   -0.6560 ca        1 MOL     -0.207560
     88 C30        -3.1890    3.2690   -0.9260 ca        1 MOL     -0.207560
     89 C31        -3.0660    6.0150   -0.6410 ca        1 MOL     -0.134591
     90 C32        -4.3880    3.9050   -0.8020 ca        1 MOL     -0.134591
     91 C33        -4.3020    5.3410   -0.7000 ca        1 MOL      0.259246
     92 O14        -5.5310    5.9630   -0.4690 oh        1 MOL     -0.521755
     93 H37        -0.5480    1.0190    1.4800 hn        1 MOL      0.222943
     94 H38         0.2100    3.7350    0.9470 h1        1 MOL      0.028176
     95 H39        -0.8770    2.0850   -1.3960 hc        1 MOL      0.016422
     96 H40         0.0740    3.4310   -1.6500 hc        1 MOL      0.016422
     97 H41        -0.8990    5.7700   -0.6490 ha        1 MOL      0.116625
     98 H42        -3.1100    2.1920   -0.9610 ha        1 MOL      0.116625
     99 H43        -2.9210    7.0730   -0.4940 ha        1 MOL      0.118249
    100 H44        -5.3310    3.3830   -0.8980 ha        1 MOL      0.118249
    101 H45        -6.2320    5.4060   -0.8100 ho        1 MOL      0.414975
    102 N10         2.5350    2.9920   -0.2730 n         1 MOL     -0.348467
    103 C34         3.8790    2.6150   -0.7390 c3        1 MOL      0.031588
    104 C35         4.8530    2.1480    0.3870 c         1 MOL      0.438357
    105 O15         5.1600    0.9940    0.5120 o         1 MOL     -0.295534
    106 C36         4.4490    3.7370   -1.7150 c3        1 MOL      0.032050
    107 C37         3.5290    3.9780   -2.9520 c3        1 MOL      0.045014
    108 C38         5.8800    3.4610   -2.1660 c3        1 MOL     -0.375109
    109 C39         3.4460    2.7380   -3.8140 c3        1 MOL     -0.281084
    110 H46         2.3280    3.9750   -0.2660 hn        1 MOL      0.267880
    111 H47         3.7270    1.7040   -1.3100 h1        1 MOL     -0.028084
    112 H48         4.4750    4.6540   -1.1350 hc        1 MOL     -0.009390
    113 H49         3.8820    4.7860   -3.5900 hc        1 MOL      0.028452
    114 H50         2.5400    4.2460   -2.5570 hc        1 MOL      0.028452
    115 H51         6.1950    4.2490   -2.8500 hc        1 MOL      0.121406
    116 H52         6.6210    3.4810   -1.3640 hc        1 MOL      0.121406
    117 H53         5.9750    2.5000   -2.6680 hc        1 MOL      0.121406
    118 H54         4.4000    2.3630   -4.1600 hc        1 MOL      0.079252
    119 H55         2.7720    1.9700   -3.4210 hc        1 MOL      0.079252
    120 H56         3.0010    3.1870   -4.6920 hc        1 MOL      0.079252
    121 N11         5.2580    3.0630    1.3020 n         1 MOL     -0.241001
    122 C40         6.1230    2.7710    2.4480 c3        1 MOL     -0.232270
    123 C41         7.5360    2.1950    2.1530 c         1 MOL      0.545646
    124 O16         8.0180    1.3030    2.8100 o         1 MOL     -0.511013
    125 C42         6.2110    4.0900    3.3010 c3        1 MOL      0.186229
    126 O17         6.4310    5.3130    2.6310 oh        1 MOL     -0.570050
    127 H57         4.6480    3.8750    1.3140 hn        1 MOL      0.214998
    128 H58         5.6550    2.0000    3.0620 h1        1 MOL      0.126922
    129 H59         7.0520    3.8930    3.9560 h1        1 MOL      0.061132
    130 H60         5.3600    4.1130    3.9820 h1        1 MOL      0.061132
    131 H61         5.6380    5.5180    2.1310 ho        1 MOL      0.387180
    132 N12         8.1310    2.6060    1.0400 n         1 MOL     -0.282097
    133 C43         9.2130    1.9920    0.2870 c3        1 MOL      0.220916
    134 C44         9.0580    0.4380    0.1500 c         1 MOL      0.381911
    135 O18        10.0340   -0.2710   -0.1920 o         1 MOL     -0.549091
    136 C45        10.5260    2.4730    0.9180 c3        1 MOL     -0.387365
    137 H62         7.5700    3.3450    0.6270 hn        1 MOL      0.143833
    138 H63         9.1270    2.3910   -0.7250 h1        1 MOL      0.050981
    139 H64        11.3390    2.2710    0.2260 hc        1 MOL      0.116550
    140 H65        10.6180    3.5510    1.0340 hc        1 MOL      0.116550
    141 H66        10.6070    2.0170    1.9030 hc        1 MOL      0.116550
    142 N13         7.8680   -0.1160    0.2500 n         1 MOL     -0.082476
    143 C46         7.5350   -1.5610    0.3980 c3        1 MOL      0.308143
    144 C47         7.0200   -2.1600   -0.9580 c         1 MOL      0.230728
    145 O19         6.3360   -1.4610   -1.6650 o         1 MOL     -0.462856
    146 C48         6.5380   -1.8780    1.5630 c3        1 MOL     -0.328011
    147 H67         7.1260    0.5350    0.4320 hn        1 MOL     -0.092546
    148 H68         8.4610   -2.0630    0.6630 h1        1 MOL      0.006978
    149 H69         6.2540   -2.9260    1.6330 hc        1 MOL      0.094582
    150 H70         7.0080   -1.5110    2.4760 hc        1 MOL      0.094582
    151 H71         5.6300   -1.2890    1.4530 hc        1 MOL      0.094582
    152 N14         7.2210   -3.4520   -1.1280 n         1 MOL     -0.511081
    153 C49         6.5600   -4.1870   -2.2070 c3        1 MOL     -0.183239
    154 C50         6.8480   -3.8110   -3.7010 c         1 MOL      0.534596
    155 O20         6.2000   -4.2950   -4.5930 o         1 MOL     -0.526155
    156 C51         5.0390   -4.0670   -2.0130 c3        1 MOL      0.162679
    157 C52         4.6340   -4.5480   -0.6540 c3        1 MOL     -0.253787
    158 C53         3.1530   -4.7220   -0.5480 c         1 MOL      0.708201
    159 O21         2.4010   -3.9190   -0.0240 o         1 MOL     -0.718182
    160 O22         2.6150   -5.6700   -1.1890 o         1 MOL     -0.718182
    161 H72         7.7740   -3.9300   -0.4390 hn        1 MOL      0.378967
    162 H73         6.7770   -5.2540   -2.2230 h1        1 MOL      0.156553
    163 H74         4.4540   -4.6720   -2.7030 hc        1 MOL      0.004914
    164 H75         4.6530   -3.0490   -2.1660 hc        1 MOL      0.004914
    165 H76         5.0380   -3.9050    0.1360 hc        1 MOL      0.057016
    166 H77         5.1310   -5.5040   -0.4840 hc        1 MOL      0.057016
    167 N15         7.7710   -2.9080   -3.9280 n         1 MOL     -0.369874
    168 C54         7.9860   -2.1740   -5.2220 c3        1 MOL     -0.120460
    169 H78         7.0400   -2.0970   -5.7570 h1        1 MOL      0.091197
    170 H79         8.3670   -1.1740   -5.0140 h1        1 MOL      0.091197
    171 H80         8.7060   -2.7180   -5.8330 h1        1 MOL      0.091197
    172 H81         8.0770   -2.5190   -3.0570 hn        1 MOL      0.305899
    173 Ca1         1.0890   -1.5770   -0.8080 Ca        1 MOL      1.790763
    174 O23         1.1770    0.2550   -2.7190 oh        1 MOL     -0.814388
    175 O24         1.7080   -2.6910   -3.1540 oh        1 MOL     -0.814388
    176 H82         1.0030    1.1770   -2.5340 ho        1 MOL      0.413766
    177 H83         1.5270   -3.4860   -3.6640 ho        1 MOL      0.413766
    178 H84         0.9430    0.1380   -3.6370 ho        1 MOL      0.413766
    179 H85         2.5240   -2.3580   -3.5180 ho        1 MOL      0.413766
    180 O25        -0.2620   -4.1230   -0.8980 oh        1 MOL     -0.814388
    181 H86        -1.1130   -4.5600   -0.7890 ho        1 MOL      0.413766
    182 H87         0.3700   -4.7350   -0.5200 ho        1 MOL      0.413766
    183 O26         3.6890   -0.9920   -0.9220 oh        1 MOL     -0.814388
    184 H88         4.3620   -1.5960   -1.2190 ho        1 MOL      0.413766
    185 H89         4.1690   -0.2880   -0.4910 ho        1 MOL      0.413766
@<TRIPOS>BOND
     1    1    2 1   
     2    1    4 1   
     3    1    5 1   
     4    1    6 1   
     5    2    3 2   
     6    2    7 1   
     7    7    8 1   
     8    7   15 1   
     9    8    9 1   
    10    8   11 1   
    11    8   16 1   
    12    9   10 2   
    13    9   19 1   
    14   11   12 1   
    15   11   17 1   
    16   11   18 1   
    17   12   13 1   
    18   12   14 1   
    19   19   20 1   
    20   19   28 1   
    21   20   21 1   
    22   20   23 1   
    23   20   29 1   
    24   21   22 2   
    25   21   41 1   
    26   23   24 1   
    27   23   30 1   
    28   23   31 1   
    29   24   25 1   
    30   24   32 1   
    31   24   33 1   
    32   25   26 1   
    33   25   34 1   
    34   25   35 1   
    35   26   27 1   
    36   26   36 1   
    37   26   37 1   
    38   27   38 1   
    39   27   39 1   
    40   27   40 1   
    41   41   42 1   
    42   41   49 1   
    43   42   43 1   
    44   42   45 1   
    45   42   50 1   
    46   43   44 2   
    47   43   53 1   
    48   45   46 1   
    49   45   51 1   
    50   45   52 1   
    51   46   47 1   
    52   46   48 1   
    53   53   54 1   
    54   53   57 1   
    55   54   55 1   
    56   54   58 1   
    57   54   59 1   
    58   55   56 2   
    59   55   60 1   
    60   60   61 1   
    61   60   68 1   
    62   61   62 1   
    63   61   64 1   
    64   61   69 1   
    65   62   63 2   
    66   62   74 1   
    67   64   65 1   
    68   64   70 1   
    69   64   71 1   
    70   65   66 1   
    71   65   67 2   
    72   66   72 1   
    73   66   73 1   
    74   74   75 1   
    75   74   78 1   
    76   75   76 1   
    77   75   79 1   
    78   75   80 1   
    79   76   77 2   
    80   76   81 1   
    81   81   82 1   
    82   81   93 1   
    83   82   83 1   
    84   82   85 1   
    85   82   94 1   
    86   83   84 2   
    87   83  102 1   
    88   85   86 1   
    89   85   95 1   
    90   85   96 1   
    91   86   87 ar  
    92   86   88 ar  
    93   87   89 ar  
    94   87   97 1   
    95   88   90 ar  
    96   88   98 1   
    97   89   91 ar  
    98   89   99 1   
    99   90   91 ar  
   100   90  100 1   
   101   91   92 1   
   102   92  101 1   
   103  102  103 1   
   104  102  110 1   
   105  103  104 1   
   106  103  106 1   
   107  103  111 1   
   108  104  105 2   
   109  104  121 1   
   110  106  107 1   
   111  106  108 1   
   112  106  112 1   
   113  107  109 1   
   114  107  113 1   
   115  107  114 1   
   116  108  115 1   
   117  108  116 1   
   118  108  117 1   
   119  109  118 1   
   120  109  119 1   
   121  109  120 1   
   122  121  122 1   
   123  121  127 1   
   124  122  123 1   
   125  122  125 1   
   126  122  128 1   
   127  123  124 2   
   128  123  132 1   
   129  125  126 1   
   130  125  129 1   
   131  125  130 1   
   132  126  131 1   
   133  132  133 1   
   134  132  137 1   
   135  133  134 1   
   136  133  136 1   
   137  133  138 1   
   138  134  135 2   
   139  134  142 1   
   140  136  139 1   
   141  136  140 1   
   142  136  141 1   
   143  142  143 1   
   144  142  147 1   
   145  143  144 1   
   146  143  146 1   
   147  143  148 1   
   148  144  145 2   
   149  144  152 1   
   150  146  149 1   
   151  146  150 1   
   152  146  151 1   
   153  152  153 1   
   154  152  161 1   
   155  153  154 1   
   156  153  156 1   
   157  153  162 1   
   158  154  155 2   
   159  154  167 1   
   160  156  157 1   
   161  156  163 1   
   162  156  164 1   
   163  157  158 1   
   164  157  165 1   
   165  157  166 1   
   166  158  159 1   
   167  158  160 1   
   168  167  168 1   
   169  167  172 1   
   170  168  169 1   
   171  168  170 1   
   172  168  171 1   
   173  174  176 1   
   174  174  178 1   
   175  175  177 1   
   176  175  179 1   
   177  180  181 1   
   178  180  182 1   
   179  183  184 1   
   180  183  185 1   
@<TRIPOS>SUBSTRUCTURE
     1 MOL         1 TEMP              0 ****  ****    0 ROOT
