@<TRIPOS>MOLECULE
MOL
  181   177     1     0     0
SMALL
resp


@<TRIPOS>ATOM
      1 C1         -1.8440    6.5990    1.8310 c3        1 MOL     -0.454404
      2 C2         -3.1520    6.4670    1.0100 c         1 MOL      0.624052
      3 O1         -3.2320    6.8370   -0.1660 o         1 MOL     -0.555418
      4 H1         -0.9870    6.4470    1.1750 hc        1 MOL      0.124322
      5 H2         -1.7900    7.5940    2.2730 hc        1 MOL      0.124322
      6 H3         -1.8340    5.8490    2.6220 hc        1 MOL      0.124322
      7 N1         -4.3110    6.1290    1.6130 n         1 MOL     -0.453382
      8 C3         -5.7000    6.1010    0.9910 c3        1 MOL      0.189720
      9 C4         -5.9100    4.8870    0.0510 c         1 MOL      0.404617
     10 O2         -6.8190    4.0650    0.2430 o         1 MOL     -0.449105
     11 C5         -6.7300    6.1050    2.0830 c3        1 MOL     -0.173835
     12 C6         -8.1150    6.4100    1.4920 c         1 MOL      0.686826
     13 O3         -9.0630    5.6960    1.8870 o         1 MOL     -0.721939
     14 O4         -8.2580    7.4110    0.6550 o         1 MOL     -0.721939
     15 H4         -4.2160    5.6270    2.4900 hn        1 MOL      0.243061
     16 H5         -5.8210    7.0190    0.4090 h1        1 MOL      0.029660
     17 H6         -6.4090    6.9200    2.7380 hc        1 MOL      0.010738
     18 H7         -6.8220    5.2030    2.6870 hc        1 MOL      0.010738
     19 N2         -4.9500    4.7370   -0.8160 n         1 MOL     -0.499969
     20 C7         -4.9140    3.8670   -1.9610 c3        1 MOL      0.622681
     21 C8         -3.6240    2.9980   -1.9390 c         1 MOL      0.362576
     22 O5         -2.7070    3.4400   -1.2600 o         1 MOL     -0.534715
     23 C9         -5.2030    4.7590   -3.1880 c3        1 MOL     -0.393919
     24 H8         -4.2360    5.4490   -0.7550 hn        1 MOL      0.233575
     25 H9         -5.7390    3.1460   -1.8840 h1        1 MOL     -0.102615
     26 H10        -6.2600    5.0270   -3.1580 hc        1 MOL      0.086422
     27 H11        -4.6020    5.6500   -3.0240 hc        1 MOL      0.086422
     28 H12        -4.9390    4.2250   -4.1030 hc        1 MOL      0.086422
     29 N3         -3.6280    1.7860   -2.4850 n         1 MOL     -0.439684
     30 C10        -4.7220    1.0770   -3.1180 c3        1 MOL     -0.034365
     31 C11        -5.4210    0.1990   -2.0630 c         1 MOL      0.732463
     32 O6         -4.8990   -0.1120   -0.9510 o         1 MOL     -0.557756
     33 C12        -4.1710    0.1290   -4.1960 c3        1 MOL     -0.342457
     34 C13        -3.0760   -0.8780   -3.7420 c         1 MOL      0.740697
     35 O7         -2.9910   -1.9760   -4.3290 o         1 MOL     -0.679224
     36 O8         -2.3280   -0.5910   -2.7860 o         1 MOL     -0.679224
     37 H13        -2.7190    1.3500   -2.5360 hn        1 MOL      0.325367
     38 H14        -5.4600    1.7910   -3.4900 h1        1 MOL      0.086961
     39 H15        -3.7860    0.6920   -5.0460 hc        1 MOL      0.086891
     40 H16        -4.9590   -0.4710   -4.6530 hc        1 MOL      0.086891
     41 N4         -6.6890   -0.2340   -2.2760 n         1 MOL     -0.580946
     42 C14        -7.3930   -1.1530   -1.3600 c3        1 MOL      0.073445
     43 C15        -7.5070   -0.6810    0.0740 c         1 MOL      0.624624
     44 O9         -7.9970    0.4110    0.2550 o         1 MOL     -0.527733
     45 H17        -7.2350    0.1520   -3.0240 hn        1 MOL      0.321021
     46 H18        -6.8200   -2.0770   -1.3080 h1        1 MOL      0.040248
     47 H19        -8.4100   -1.4390   -1.6380 h1        1 MOL      0.040248
     48 N5         -7.1320   -1.4250    1.0920 n         1 MOL     -0.540006
     49 C16        -6.6700   -2.8200    1.0830 c3        1 MOL      0.031105
     50 C17        -5.6250   -3.0790    2.1770 c         1 MOL      0.556038
     51 O10        -5.9410   -2.7030    3.2860 o         1 MOL     -0.522143
     52 C18        -7.8380   -3.7900    1.2900 c3        1 MOL     -0.351609
     53 C19        -7.3920   -5.2670    1.1900 c         1 MOL      0.703622
     54 N6         -8.0840   -6.1320    1.9410 n         1 MOL     -0.788385
     55 O11        -6.5550   -5.5550    0.3550 o         1 MOL     -0.564359
     56 H20        -7.1070   -1.0790    2.0380 hn        1 MOL      0.338174
     57 H21        -6.1120   -3.0960    0.1920 h1        1 MOL      0.085082
     58 H22        -8.5310   -3.6280    0.4690 hc        1 MOL      0.116217
     59 H23        -8.2550   -3.6610    2.2880 hc        1 MOL      0.116217
     60 H24        -8.8760   -5.7550    2.4330 hn        1 MOL      0.363758
     61 H25        -7.9400   -7.1170    1.7590 hn        1 MOL      0.363758
     62 N7         -4.5170   -3.7440    1.9330 n         1 MOL     -0.335007
     63 C20        -3.6650   -4.2920    2.9930 c3        1 MOL     -0.274793
     64 C21        -2.2670   -4.7590    2.5720 c         1 MOL      0.604082
     65 O12        -1.4350   -5.1130    3.4270 o         1 MOL     -0.550265
     66 H26        -4.3630   -4.0100    0.9770 hn        1 MOL      0.218787
     67 H27        -4.1220   -5.1340    3.5070 h1        1 MOL      0.154055
     68 H28        -3.5460   -3.4910    3.7210 h1        1 MOL      0.154055
     69 N8         -1.9900   -4.7080    1.2470 n         1 MOL     -0.514454
     70 C22        -0.6380   -5.1230    0.7620 c3        1 MOL     -0.011391
     71 C23         0.5320   -4.0140    0.7500 c         1 MOL      0.754055
     72 O13         0.3570   -2.9110    0.3730 o         1 MOL     -0.716448
     73 C24        -0.6450   -5.7360   -0.6070 c3        1 MOL      0.429911
     74 C25         0.6210   -6.4110   -1.1470 c3        1 MOL     -0.227740
     75 O14        -1.4220   -6.8740   -0.5850 oh        1 MOL     -0.602666
     76 H29        -2.7270   -4.3240    0.6680 hn        1 MOL      0.332240
     77 H30        -0.3790   -5.9480    1.4230 h1        1 MOL      0.059993
     78 H31        -0.9400   -4.9440   -1.2810 h1        1 MOL     -0.061082
     79 H32        -2.3280   -6.5760   -0.4600 ho        1 MOL      0.342523
     80 H33         1.3520   -5.6980   -1.5260 hc        1 MOL      0.066648
     81 H34         1.1580   -6.8900   -0.3240 hc        1 MOL      0.066648
     82 H35         0.3260   -7.2030   -1.8410 hc        1 MOL      0.066648
     83 N9          1.7080   -4.4960    1.1400 n         1 MOL     -0.519899
     84 C26         2.9540   -3.6330    1.2330 c3        1 MOL     -0.035019
     85 C27         3.7300   -3.8510   -0.0880 c         1 MOL      0.383267
     86 O15         3.9110   -4.9450   -0.5520 o         1 MOL     -0.511728
     87 C28         3.6560   -3.9010    2.5880 c3        1 MOL      0.111789
     88 C29         4.9480   -3.0780    2.7150 c3        1 MOL      0.047266
     89 C30         2.6860   -3.4750    3.7730 c3        1 MOL     -0.463715
     90 C31         5.9170   -3.5870    3.8060 c3        1 MOL     -0.102272
     91 H36         1.7280   -5.4600    1.4600 hn        1 MOL      0.291668
     92 H37         2.6570   -2.5800    1.2090 h1        1 MOL      0.304802
     93 H38         3.8410   -4.9630    2.6710 hc        1 MOL      0.034247
     94 H39         4.8010   -2.0120    2.8570 hc        1 MOL      0.002069
     95 H40         5.5090   -3.1450    1.7880 hc        1 MOL      0.002069
     96 H41         1.7280   -3.8930    3.4800 hc        1 MOL      0.117917
     97 H42         2.9870   -3.9390    4.7110 hc        1 MOL      0.117917
     98 H43         2.5930   -2.3930    3.8840 hc        1 MOL      0.117917
     99 H44         6.8350   -3.0010    3.8230 hc        1 MOL      0.015203
    100 H45         5.5010   -3.5810    4.8150 hc        1 MOL      0.015203
    101 H46         6.1670   -4.6200    3.5760 hc        1 MOL      0.015203
    102 N10         4.2010   -2.7230   -0.6960 n         1 MOL     -0.090833
    103 C32         4.9140   -2.7220   -1.9480 c3        1 MOL     -0.015266
    104 C33         5.9510   -1.5920   -1.9190 c         1 MOL      0.461635
    105 O16         6.7580   -1.6090   -2.8570 o         1 MOL     -0.565635
    106 C34         3.9710   -2.5030   -3.1900 c3        1 MOL      0.152645
    107 C35         2.6220   -3.0890   -3.0510 c         1 MOL      0.579649
    108 O17         1.7720   -2.3860   -2.4620 o         1 MOL     -0.687462
    109 O18         2.3360   -4.1790   -3.6260 o         1 MOL     -0.687462
    110 H47         4.0570   -1.8860   -0.1440 hn        1 MOL     -0.047261
    111 H48         5.4320   -3.6760   -1.9150 h1        1 MOL      0.079564
    112 H49         4.5320   -2.9420   -4.0270 hc        1 MOL     -0.043025
    113 H50         3.9390   -1.4210   -3.3150 hc        1 MOL     -0.043025
    114 N11         5.8980   -0.6180   -1.0320 n         1 MOL     -0.430905
    115 C36         6.7030    0.6500   -1.0870 c3        1 MOL      0.482287
    116 C37         6.0020    1.8730   -0.4620 c         1 MOL      0.132723
    117 O19         6.5140    2.4230    0.5310 o         1 MOL     -0.401025
    118 C38         8.1120    0.4350   -0.5120 c3        1 MOL     -0.280799
    119 C39         9.1450    1.4850   -0.8250 ca        1 MOL      0.221031
    120 C40        10.0410    1.9190    0.1780 ca        1 MOL     -0.227459
    121 C41         9.2560    2.0680   -2.1050 ca        1 MOL     -0.227459
    122 C42        10.8930    3.0320   -0.0730 ca        1 MOL     -0.087973
    123 C43        10.1530    3.0760   -2.3790 ca        1 MOL     -0.087973
    124 C44        10.9460    3.6280   -1.3680 ca        1 MOL     -0.158486
    125 H51         5.2000   -0.6390   -0.3050 hn        1 MOL      0.217252
    126 H52         6.8080    0.7840   -2.1630 h1        1 MOL     -0.035838
    127 H53         8.4910   -0.5360   -0.8550 hc        1 MOL      0.075987
    128 H54         7.9790    0.3680    0.5670 hc        1 MOL      0.075987
    129 H55        10.0190    1.4860    1.1630 ha        1 MOL      0.134338
    130 H56         8.6330    1.7160   -2.9080 ha        1 MOL      0.134338
    131 H57        11.5290    3.3950    0.7270 ha        1 MOL      0.098235
    132 H58        10.2130    3.4610   -3.3910 ha        1 MOL      0.098235
    133 H59        11.6270    4.4440   -1.5830 ha        1 MOL      0.105037
    134 N12         4.8270    2.2870   -0.9550 n         1 MOL     -0.112336
    135 C45         4.0990    3.5100   -0.5950 c3        1 MOL     -0.048931
    136 C46         3.8550    3.6310    0.9150 c         1 MOL      0.175189
    137 O20         3.6010    4.7490    1.3960 o         1 MOL     -0.493723
    138 C47         2.8190    3.5120   -1.3260 c3        1 MOL      0.186516
    139 C48         3.1850    2.6840   -2.5680 c3        1 MOL     -0.332355
    140 C49         4.1810    1.6540   -2.0780 c3        1 MOL      0.215758
    141 H60         4.6480    4.3560   -1.0100 h1        1 MOL      0.094409
    142 H61         1.9870    3.1170   -0.7330 hc        1 MOL      0.011570
    143 H62         2.4670    4.5090   -1.6000 hc        1 MOL      0.011570
    144 H63         2.2860    2.2650   -3.0090 hc        1 MOL      0.080160
    145 H64         3.8000    3.2820   -3.2500 hc        1 MOL      0.080160
    146 H65         3.6890    0.7140   -1.8000 h1        1 MOL      0.008989
    147 H66         4.8760    1.5430   -2.9090 h1        1 MOL      0.008989
    148 N13         3.9100    2.5180    1.6270 n         1 MOL      0.223398
    149 C50         3.5180    2.4630    3.0240 c3        1 MOL     -0.223168
    150 C51         4.6320    2.8780    3.9820 c         1 MOL      0.455878
    151 O21         4.3590    3.4740    5.0720 o         1 MOL     -0.543511
    152 C52         3.1190    0.9970    3.3460 c3        1 MOL      0.008870
    153 C53         2.1270    0.3610    2.4170 c3        1 MOL     -0.123366
    154 C54         2.7010   -0.0010    0.9760 c         1 MOL      0.088149
    155 O22         1.8920   -0.0330    0.0240 o         1 MOL     -0.462502
    156 O23         3.9320   -0.2780    0.8350 o         1 MOL     -0.462502
    157 H67         3.8250    1.6680    1.0940 hn        1 MOL      0.181261
    158 H68         2.6610    3.1270    3.1960 h1        1 MOL      0.109923
    159 H69         2.7040    0.9610    4.3520 hc        1 MOL      0.029464
    160 H70         3.9760    0.3460    3.2230 hc        1 MOL      0.029464
    161 H71         1.2550    1.0010    2.2970 hc        1 MOL      0.066524
    162 H72         1.8040   -0.5850    2.8500 hc        1 MOL      0.066524
    163 N14         5.9290    2.7110    3.6010 n         1 MOL     -0.131833
    164 C55         7.0250    3.2650    4.3790 c3        1 MOL     -0.360109
    165 H73         7.9730    2.9870    3.9190 h1        1 MOL      0.130664
    166 H74         6.9390    4.3510    4.4070 h1        1 MOL      0.130664
    167 H75         6.9860    2.8700    5.3950 h1        1 MOL      0.130664
    168 H76         6.0260    2.4220    2.6390 hn        1 MOL      0.130565
    169 Ca1        -0.0810   -1.0310   -1.3300 Ca        1 MOL      1.734790
    170 O24        -2.2100   -1.1040    0.2340 oh        1 MOL     -0.859719
    171 H77        -2.9100   -1.7540    0.2560 ho        1 MOL      0.412271
    172 H78        -2.5870   -0.3380    0.6820 ho        1 MOL      0.412271
    173 O25         0.0490    0.5750   -3.3630 oh        1 MOL     -0.859719
    174 H79         0.1410    1.5260   -3.3040 ho        1 MOL      0.412271
    175 H80        -0.5270    0.4370   -4.1190 ho        1 MOL      0.412271
    176 O26        -1.0830   -2.9840   -2.6220 oh        1 MOL     -0.859719
    177 H81        -1.7010   -2.5860   -3.2440 ho        1 MOL      0.412271
    178 H82        -0.5680   -3.5960   -3.1470 ho        1 MOL      0.412271
    179 O27        -0.6250    1.4800   -0.4810 oh        1 MOL     -0.859719
    180 H83        -1.4560    1.9510   -0.4590 ho        1 MOL      0.412271
    181 H84        -0.3200    1.4890    0.4380 ho        1 MOL      0.412271
@<TRIPOS>BOND
     1    1    2 1   
     2    1    4 1   
     3    1    5 1   
     4    1    6 1   
     5    2    3 2   
     6    2    7 1   
     7    7    8 1   
     8    7   15 1   
     9    8    9 1   
    10    8   11 1   
    11    8   16 1   
    12    9   10 2   
    13    9   19 1   
    14   11   12 1   
    15   11   17 1   
    16   11   18 1   
    17   12   13 1   
    18   12   14 1   
    19   19   20 1   
    20   19   24 1   
    21   20   21 1   
    22   20   23 1   
    23   20   25 1   
    24   21   22 2   
    25   21   29 1   
    26   23   26 1   
    27   23   27 1   
    28   23   28 1   
    29   29   30 1   
    30   29   37 1   
    31   30   31 1   
    32   30   33 1   
    33   30   38 1   
    34   31   32 2   
    35   31   41 1   
    36   33   34 1   
    37   33   39 1   
    38   33   40 1   
    39   34   35 1   
    40   34   36 1   
    41   41   42 1   
    42   41   45 1   
    43   42   43 1   
    44   42   46 1   
    45   42   47 1   
    46   43   44 2   
    47   43   48 1   
    48   48   49 1   
    49   48   56 1   
    50   49   50 1   
    51   49   52 1   
    52   49   57 1   
    53   50   51 2   
    54   50   62 1   
    55   52   53 1   
    56   52   58 1   
    57   52   59 1   
    58   53   54 1   
    59   53   55 2   
    60   54   60 1   
    61   54   61 1   
    62   62   63 1   
    63   62   66 1   
    64   63   64 1   
    65   63   67 1   
    66   63   68 1   
    67   64   65 2   
    68   64   69 1   
    69   69   70 1   
    70   69   76 1   
    71   70   71 1   
    72   70   73 1   
    73   70   77 1   
    74   71   72 2   
    75   71   83 1   
    76   73   74 1   
    77   73   75 1   
    78   73   78 1   
    79   74   80 1   
    80   74   81 1   
    81   74   82 1   
    82   75   79 1   
    83   83   84 1   
    84   83   91 1   
    85   84   85 1   
    86   84   87 1   
    87   84   92 1   
    88   85   86 2   
    89   85  102 1   
    90   87   88 1   
    91   87   89 1   
    92   87   93 1   
    93   88   90 1   
    94   88   94 1   
    95   88   95 1   
    96   89   96 1   
    97   89   97 1   
    98   89   98 1   
    99   90   99 1   
   100   90  100 1   
   101   90  101 1   
   102  102  103 1   
   103  102  110 1   
   104  103  104 1   
   105  103  106 1   
   106  103  111 1   
   107  104  105 2   
   108  104  114 1   
   109  106  107 1   
   110  106  112 1   
   111  106  113 1   
   112  107  108 1   
   113  107  109 1   
   114  114  115 1   
   115  114  125 1   
   116  115  116 1   
   117  115  118 1   
   118  115  126 1   
   119  116  117 2   
   120  116  134 1   
   121  118  119 1   
   122  118  127 1   
   123  118  128 1   
   124  119  120 ar  
   125  119  121 ar  
   126  120  122 ar  
   127  120  129 1   
   128  121  123 ar  
   129  121  130 1   
   130  122  124 ar  
   131  122  131 1   
   132  123  124 ar  
   133  123  132 1   
   134  124  133 1   
   135  134  135 1   
   136  134  140 1   
   137  135  136 1   
   138  135  138 1   
   139  135  141 1   
   140  136  137 2   
   141  136  148 1   
   142  138  139 1   
   143  138  142 1   
   144  138  143 1   
   145  139  140 1   
   146  139  144 1   
   147  139  145 1   
   148  140  146 1   
   149  140  147 1   
   150  148  149 1   
   151  148  157 1   
   152  149  150 1   
   153  149  152 1   
   154  149  158 1   
   155  150  151 2   
   156  150  163 1   
   157  152  153 1   
   158  152  159 1   
   159  152  160 1   
   160  153  154 1   
   161  153  161 1   
   162  153  162 1   
   163  154  155 1   
   164  154  156 1   
   165  163  164 1   
   166  163  168 1   
   167  164  165 1   
   168  164  166 1   
   169  164  167 1   
   170  170  171 1   
   171  170  172 1   
   172  173  174 1   
   173  173  175 1   
   174  176  177 1   
   175  176  178 1   
   176  179  180 1   
   177  179  181 1   
@<TRIPOS>SUBSTRUCTURE
     1 MOL         1 TEMP              0 ****  ****    0 ROOT
