@<TRIPOS>MOLECULE
MOL
  192   187     1     0     0
SMALL
resp


@<TRIPOS>ATOM
      1 C1          4.4040   -7.8850    0.5820 c3        1 MOL     -0.380835
      2 C2          3.9650   -6.4640    0.9180 c         1 MOL      0.673705
      3 O1          3.3220   -6.1540    1.8700 o         1 MOL     -0.597204
      4 H1          4.0860   -8.1320   -0.4300 hc        1 MOL      0.100478
      5 H2          5.4900   -7.9550    0.6490 hc        1 MOL      0.100478
      6 H3          3.9500   -8.5820    1.2860 hc        1 MOL      0.100478
      7 N1          4.3960   -5.4500    0.1570 n         1 MOL     -0.437734
      8 C3          4.1210   -3.9870    0.4200 c3        1 MOL     -0.043204
      9 C4          2.7470   -3.5080   -0.0890 c         1 MOL      0.371835
     10 O2          2.2590   -2.4970    0.4060 o         1 MOL     -0.535630
     11 C5          5.2810   -3.1980   -0.1430 c3        1 MOL     -0.275909
     12 C6          5.3260   -3.2380   -1.6590 c         1 MOL      0.753603
     13 O3          5.0770   -2.1710   -2.2630 o         1 MOL     -0.746062
     14 O4          5.5590   -4.3160   -2.2240 o         1 MOL     -0.746062
     15 H4          5.1200   -5.6900   -0.5150 hn        1 MOL      0.257917
     16 H5          4.1520   -3.8910    1.5040 h1        1 MOL      0.130058
     17 H6          6.2440   -3.6040    0.1640 hc        1 MOL      0.112901
     18 H7          5.1060   -2.1610    0.1420 hc        1 MOL      0.112901
     19 N2          1.9950   -4.3330   -0.7820 n         1 MOL     -0.233819
     20 C7          0.6220   -4.0840   -1.2940 c3        1 MOL      0.297286
     21 C8         -0.4510   -4.5780   -0.2610 c         1 MOL      0.408440
     22 O5         -0.2240   -5.6480    0.3460 o         1 MOL     -0.555728
     23 C9          0.4610   -4.8150   -2.6230 c3        1 MOL      0.163096
     24 C10         1.6710   -4.7830   -3.5200 c3        1 MOL     -0.101005
     25 C11         1.9520   -3.3190   -3.9040 c3        1 MOL     -0.115765
     26 C12         0.8760   -2.7310   -4.8540 c3        1 MOL      0.128372
     27 N3          1.3840   -1.4160   -5.2870 n4        1 MOL     -0.508563
     28 H8          2.4390   -5.2070   -1.0160 hn        1 MOL      0.181694
     29 H9          0.5070   -3.0020   -1.3900 h1        1 MOL      0.028068
     30 H10        -0.4960   -4.5930   -3.1130 hc        1 MOL     -0.046231
     31 H11         0.3290   -5.8570   -2.3270 hc        1 MOL     -0.046231
     32 H12         1.5100   -5.4590   -4.3660 hc        1 MOL      0.046727
     33 H13         2.4460   -5.1570   -2.8530 hc        1 MOL      0.046727
     34 H14         2.9500   -3.3120   -4.3400 hc        1 MOL      0.054209
     35 H15         2.0890   -2.6370   -3.0580 hc        1 MOL      0.054209
     36 H16        -0.0040   -2.5810   -4.2280 hx        1 MOL      0.053427
     37 H17         0.6010   -3.3950   -5.6740 hx        1 MOL      0.053427
     38 H18         2.2810   -1.2380   -4.8630 hn        1 MOL      0.355268
     39 H19         1.3590   -1.3030   -6.3000 hn        1 MOL      0.355268
     40 H20         0.7750   -0.6800   -4.9430 hn        1 MOL      0.355268
     41 N4         -1.5620   -3.9600   -0.0320 n         1 MOL     -0.447642
     42 C13        -2.1460   -2.6330   -0.4150 c3        1 MOL      0.007181
     43 C14        -2.3400   -2.3530   -1.9010 c         1 MOL      0.471978
     44 O6         -1.4550   -2.1740   -2.7140 o         1 MOL     -0.504099
     45 C15        -1.5700   -1.3150    0.2400 c3        1 MOL     -0.297771
     46 C16        -1.0570   -1.3580    1.6580 c         1 MOL      0.752366
     47 O7         -1.6680   -1.9580    2.5840 o         1 MOL     -0.717111
     48 O8          0.0270   -0.7290    1.9020 o         1 MOL     -0.717111
     49 H21        -1.9760   -4.4950    0.7210 hn        1 MOL      0.308869
     50 H22        -3.1280   -2.6880    0.0560 h1        1 MOL      0.106450
     51 H23        -2.3830   -0.5920    0.1330 hc        1 MOL      0.093868
     52 H24        -0.7280   -0.9820   -0.3670 hc        1 MOL      0.093868
     53 N5         -3.6300   -2.2020   -2.3250 n         1 MOL     -0.357450
     54 C17        -4.9220   -2.3060   -1.6030 c3        1 MOL      0.084665
     55 C18        -6.1720   -1.9950   -2.4440 c         1 MOL      0.556870
     56 O9         -6.0450   -1.9180   -3.6550 o         1 MOL     -0.538079
     57 H25        -3.8090   -1.9390   -3.2750 hn        1 MOL      0.242105
     58 H26        -4.9480   -1.6270   -0.7420 h1        1 MOL      0.014899
     59 H27        -5.0470   -3.3340   -1.2800 h1        1 MOL      0.014899
     60 N6         -7.3980   -1.8780   -1.9390 n         1 MOL     -0.449282
     61 C19        -7.9630   -2.0410   -0.5810 c3        1 MOL      0.189436
     62 C20        -8.0040   -0.7500    0.2510 c         1 MOL      0.491908
     63 O10        -7.8440    0.3570   -0.2850 o         1 MOL     -0.448355
     64 C21        -9.3870   -2.6380   -0.6490 c3        1 MOL     -0.254204
     65 C22        -9.6440   -3.5370   -1.8870 c         1 MOL      0.761391
     66 O11        -9.9480   -3.0330   -2.9610 o         1 MOL     -0.667368
     67 O12        -9.5820   -4.7490   -1.7330 o         1 MOL     -0.667368
     68 H28        -7.9630   -1.3820   -2.6110 hn        1 MOL      0.296654
     69 H29        -7.4170   -2.7780    0.0090 h1        1 MOL      0.000811
     70 H30       -10.0120   -1.7830   -0.8660 hc        1 MOL      0.039986
     71 H31        -9.6910   -3.2160    0.2200 hc        1 MOL      0.039986
     72 N7         -8.3860   -0.8930    1.5500 n         1 MOL     -0.476921
     73 C23        -8.6910    0.1880    2.5050 c3        1 MOL     -0.024098
     74 C24        -7.7770    1.4000    2.4850 c         1 MOL      0.594466
     75 O13        -8.2410    2.5130    2.7460 o         1 MOL     -0.553746
     76 H32        -8.3980   -1.8170    1.9600 hn        1 MOL      0.292223
     77 H33        -8.6140   -0.2140    3.5140 h1        1 MOL      0.081385
     78 H34        -9.7030    0.5580    2.3470 h1        1 MOL      0.081385
     79 N8         -6.4520    1.2450    2.2890 n         1 MOL     -0.485684
     80 C25        -5.5570    2.3160    1.7590 c3        1 MOL      0.042599
     81 C26        -4.5610    1.8910    0.7060 c         1 MOL      0.462327
     82 O14        -4.2710    0.7030    0.5480 o         1 MOL     -0.484493
     83 C27        -4.7210    2.8850    2.9660 c3        1 MOL      0.251434
     84 C28        -5.6350    3.6290    3.9820 c3        1 MOL     -0.491191
     85 O15        -3.7780    3.7790    2.5610 oh        1 MOL     -0.574684
     86 H35        -6.0080    0.3430    2.3790 hn        1 MOL      0.253577
     87 H36        -6.1490    3.1540    1.3830 h1        1 MOL      0.124867
     88 H37        -4.2310    2.0510    3.4790 h1        1 MOL      0.010108
     89 H38        -3.1620    3.8890    3.3000 ho        1 MOL      0.414654
     90 H39        -4.9930    4.2070    4.6410 hc        1 MOL      0.134469
     91 H40        -6.3180    4.3440    3.5160 hc        1 MOL      0.134469
     92 H41        -6.1760    2.8770    4.5640 hc        1 MOL      0.134469
     93 N9         -4.0730    2.8320   -0.0640 n         1 MOL     -0.285414
     94 C29        -3.1740    2.5180   -1.1740 c3        1 MOL     -0.258761
     95 C30        -1.9400    3.4880   -1.3700 c         1 MOL      0.468751
     96 O16        -1.4650    3.5990   -2.5470 o         1 MOL     -0.580867
     97 C31        -4.0520    2.4920   -2.4860 c3        1 MOL      0.332968
     98 C32        -4.7060    3.8780   -2.8390 c3        1 MOL      0.021264
     99 C33        -5.1050    1.3630   -2.4710 c3        1 MOL     -0.376518
    100 C34        -5.6230    3.9120   -3.9730 c3        1 MOL     -0.263130
    101 H42        -4.1830    3.8160    0.1340 hn        1 MOL      0.245242
    102 H43        -2.7230    1.5320   -1.0040 h1        1 MOL      0.142501
    103 H44        -3.3950    2.1590   -3.2880 hc        1 MOL     -0.016849
    104 H45        -3.9710    4.6640   -2.9910 hc        1 MOL      0.015483
    105 H46        -5.2930    4.1090   -1.9510 hc        1 MOL      0.015483
    106 H47        -5.9790    1.7170   -1.9160 hc        1 MOL      0.082514
    107 H48        -5.2620    1.1450   -3.5160 hc        1 MOL      0.082514
    108 H49        -4.6590    0.4710   -2.0280 hc        1 MOL      0.082514
    109 H50        -6.0830    4.8960   -4.1200 hc        1 MOL      0.068653
    110 H51        -5.2130    3.5590   -4.9140 hc        1 MOL      0.068653
    111 H52        -6.5000    3.3540   -3.6330 hc        1 MOL      0.068653
    112 N10        -1.4820    4.2800   -0.4200 n         1 MOL     -0.153053
    113 C35        -0.6960    5.4840   -0.6940 c3        1 MOL     -0.142963
    114 C36         0.8130    5.3050   -0.9900 c         1 MOL      0.376236
    115 O17         1.4880    6.2700   -1.3020 o         1 MOL     -0.485719
    116 C37        -0.8270    6.5080    0.4360 c3        1 MOL      0.287813
    117 C38        -0.5750    5.9440    1.8370 c3        1 MOL     -0.113087
    118 O18        -2.1030    6.9810    0.4750 oh        1 MOL     -0.643921
    119 H53        -1.7530    4.0870    0.5360 hn        1 MOL      0.200429
    120 H54        -1.0850    5.9240   -1.6120 h1        1 MOL      0.176607
    121 H55        -0.1340    7.3260    0.2530 h1        1 MOL      0.037030
    122 H56        -2.0630    7.6800    1.1260 ho        1 MOL      0.408931
    123 H57         0.4570    5.6010    1.7720 hc        1 MOL      0.028986
    124 H58        -0.6040    6.7310    2.5980 hc        1 MOL      0.028986
    125 H59        -1.3250    5.1960    2.0460 hc        1 MOL      0.028986
    126 N11         1.2960    4.0300   -1.0830 n         1 MOL     -0.335771
    127 C39         2.6620    3.6210   -1.4130 c3        1 MOL      0.255197
    128 C40         3.7190    3.9240   -0.3450 c         1 MOL      0.268837
    129 O19         3.5550    4.6850    0.5990 o         1 MOL     -0.438071
    130 C41         3.0370    4.1720   -2.8270 c3        1 MOL      0.428527
    131 C42         2.0380    3.7670   -3.9140 c3        1 MOL     -0.535071
    132 O20         4.3880    3.9060   -3.2270 oh        1 MOL     -0.652297
    133 H60         0.6620    3.2920   -0.8140 hn        1 MOL      0.216937
    134 H61         2.6810    2.5390   -1.5430 h1        1 MOL      0.000159
    135 H62         2.9070    5.2490   -2.6610 h1        1 MOL     -0.018869
    136 H63         4.8810    4.7220   -3.1330 ho        1 MOL      0.382019
    137 H64         1.0830    4.2120   -3.6170 hc        1 MOL      0.138780
    138 H65         2.3500    4.1540   -4.8900 hc        1 MOL      0.138780
    139 H66         1.8450    2.7020   -3.8590 hc        1 MOL      0.138780
    140 N12         4.8550    3.2320   -0.4860 n         1 MOL     -0.324306
    141 C43         6.1280    3.5050    0.2120 c3        1 MOL      0.082458
    142 C44         6.4910    2.5500    1.3430 c         1 MOL      0.575762
    143 O21         7.3840    2.8870    2.0980 o         1 MOL     -0.573336
    144 C45         7.2650    3.5340   -0.7710 c3        1 MOL      0.052190
    145 C46         7.4590    2.3070   -1.6080 c3        1 MOL     -0.039356
    146 C47         8.3040    2.7390   -2.7790 c3        1 MOL     -0.305512
    147 C48         8.5200    1.5630   -3.6830 c3        1 MOL      0.090263
    148 N13         9.2370    1.9920   -4.8080 n4        1 MOL     -0.160572
    149 H67         4.8920    2.6290   -1.2930 hn        1 MOL      0.272367
    150 H68         6.1950    4.4700    0.7030 h1        1 MOL      0.066259
    151 H69         8.1830    3.7400   -0.2360 hc        1 MOL     -0.001354
    152 H70         7.0690    4.4050   -1.3980 hc        1 MOL     -0.001354
    153 H71         6.5760    1.8880   -2.0830 hc        1 MOL      0.070234
    154 H72         8.0580    1.5790   -1.0670 hc        1 MOL      0.070234
    155 H73         9.2810    2.9900   -2.3800 hc        1 MOL      0.100548
    156 H74         7.9060    3.6160   -3.2920 hc        1 MOL      0.100548
    157 H75         7.5380    1.2310   -4.0370 hx        1 MOL      0.083846
    158 H76         9.0850    0.7850   -3.1810 hx        1 MOL      0.083846
    159 H77         9.0060    2.8920   -5.2100 hn        1 MOL      0.230272
    160 H78        10.2270    2.0100   -4.6220 hn        1 MOL      0.230272
    161 H79         9.1110    1.2730   -5.5070 hn        1 MOL      0.230272
    162 N14         5.8680    1.4140    1.4130 n         1 MOL     -0.456858
    163 C49         6.1160    0.3960    2.4460 c3        1 MOL      0.132925
    164 C50         7.1140   -0.7300    1.9870 c         1 MOL      0.493531
    165 O22         7.1330   -1.0010    0.7650 o         1 MOL     -0.552493
    166 C51         4.7930   -0.1510    2.9890 c3        1 MOL      0.231902
    167 C52         4.3250    0.6650    4.2960 c3        1 MOL      0.056344
    168 C53         2.9490    0.1360    4.6520 c         1 MOL      0.710259
    169 O23         2.7570   -1.0930    4.8330 o         1 MOL     -0.802167
    170 O24         1.9810    0.8870    4.7060 o         1 MOL     -0.802167
    171 H80         5.2810    1.1140    0.6500 hn        1 MOL      0.213720
    172 H81         6.6680    0.8780    3.2440 h1        1 MOL     -0.010745
    173 H82         4.9040   -1.1670    3.3480 hc        1 MOL     -0.057022
    174 H83         4.0090   -0.2580    2.2370 hc        1 MOL     -0.057022
    175 H84         4.3180    1.7370    4.0920 hc        1 MOL     -0.035126
    176 H85         4.9800    0.4200    5.1310 hc        1 MOL     -0.035126
    177 N15         7.9060   -1.3220    2.9350 n         1 MOL     -0.353106
    178 C54         9.0360   -2.2120    2.6140 c3        1 MOL     -0.397038
    179 H86         8.6700   -3.2320    2.4920 h1        1 MOL      0.164932
    180 H87         9.5080   -1.8810    1.6890 h1        1 MOL      0.164932
    181 H88         9.7640   -2.1820    3.4250 h1        1 MOL      0.164932
    182 H89         7.7410   -1.0770    3.8990 hn        1 MOL      0.296674
    183 Ca1         0.2070   -1.4820    4.5190 Ca        1 MOL      1.767999
    184 O25        -0.9620    0.9240    4.7780 oh        1 MOL     -0.893548
    185 H90        -1.3600    1.7610    4.5220 ho        1 MOL      0.436851
    186 H91        -0.7030    1.0480    5.6890 ho        1 MOL      0.436851
    187 O26         1.2130   -3.3060    3.0370 oh        1 MOL     -0.893548
    188 H92         1.1770   -4.2470    2.8680 ho        1 MOL      0.436851
    189 H93         1.6730   -2.9470    2.2810 ho        1 MOL      0.436851
    190 O27        -2.4960   -1.8570    5.4050 oh        1 MOL     -0.893548
    191 H94        -3.0560   -2.6220    5.2570 ho        1 MOL      0.436851
    192 H95        -3.1140   -1.1250    5.4550 ho        1 MOL      0.436851
@<TRIPOS>BOND
     1    1    2 1   
     2    1    4 1   
     3    1    5 1   
     4    1    6 1   
     5    2    3 2   
     6    2    7 1   
     7    7    8 1   
     8    7   15 1   
     9    8    9 1   
    10    8   11 1   
    11    8   16 1   
    12    9   10 2   
    13    9   19 1   
    14   11   12 1   
    15   11   17 1   
    16   11   18 1   
    17   12   13 1   
    18   12   14 1   
    19   19   20 1   
    20   19   28 1   
    21   20   21 1   
    22   20   23 1   
    23   20   29 1   
    24   21   22 2   
    25   21   41 1   
    26   23   24 1   
    27   23   30 1   
    28   23   31 1   
    29   24   25 1   
    30   24   32 1   
    31   24   33 1   
    32   25   26 1   
    33   25   34 1   
    34   25   35 1   
    35   26   27 1   
    36   26   36 1   
    37   26   37 1   
    38   27   38 1   
    39   27   39 1   
    40   27   40 1   
    41   41   42 1   
    42   41   49 1   
    43   42   43 1   
    44   42   45 1   
    45   42   50 1   
    46   43   44 2   
    47   43   53 1   
    48   45   46 1   
    49   45   51 1   
    50   45   52 1   
    51   46   47 1   
    52   46   48 1   
    53   53   54 1   
    54   53   57 1   
    55   54   55 1   
    56   54   58 1   
    57   54   59 1   
    58   55   56 2   
    59   55   60 1   
    60   60   61 1   
    61   60   68 1   
    62   61   62 1   
    63   61   64 1   
    64   61   69 1   
    65   62   63 2   
    66   62   72 1   
    67   64   65 1   
    68   64   70 1   
    69   64   71 1   
    70   65   66 1   
    71   65   67 1   
    72   72   73 1   
    73   72   76 1   
    74   73   74 1   
    75   73   77 1   
    76   73   78 1   
    77   74   75 2   
    78   74   79 1   
    79   79   80 1   
    80   79   86 1   
    81   80   81 1   
    82   80   83 1   
    83   80   87 1   
    84   81   82 2   
    85   81   93 1   
    86   83   84 1   
    87   83   85 1   
    88   83   88 1   
    89   84   90 1   
    90   84   91 1   
    91   84   92 1   
    92   85   89 1   
    93   93   94 1   
    94   93  101 1   
    95   94   95 1   
    96   94   97 1   
    97   94  102 1   
    98   95   96 2   
    99   95  112 1   
   100   97   98 1   
   101   97   99 1   
   102   97  103 1   
   103   98  100 1   
   104   98  104 1   
   105   98  105 1   
   106   99  106 1   
   107   99  107 1   
   108   99  108 1   
   109  100  109 1   
   110  100  110 1   
   111  100  111 1   
   112  112  113 1   
   113  112  119 1   
   114  113  114 1   
   115  113  116 1   
   116  113  120 1   
   117  114  115 2   
   118  114  126 1   
   119  116  117 1   
   120  116  118 1   
   121  116  121 1   
   122  117  123 1   
   123  117  124 1   
   124  117  125 1   
   125  118  122 1   
   126  126  127 1   
   127  126  133 1   
   128  127  128 1   
   129  127  130 1   
   130  127  134 1   
   131  128  129 2   
   132  128  140 1   
   133  130  131 1   
   134  130  132 1   
   135  130  135 1   
   136  131  137 1   
   137  131  138 1   
   138  131  139 1   
   139  132  136 1   
   140  140  141 1   
   141  140  149 1   
   142  141  142 1   
   143  141  144 1   
   144  141  150 1   
   145  142  143 2   
   146  142  162 1   
   147  144  145 1   
   148  144  151 1   
   149  144  152 1   
   150  145  146 1   
   151  145  153 1   
   152  145  154 1   
   153  146  147 1   
   154  146  155 1   
   155  146  156 1   
   156  147  148 1   
   157  147  157 1   
   158  147  158 1   
   159  148  159 1   
   160  148  160 1   
   161  148  161 1   
   162  162  163 1   
   163  162  171 1   
   164  163  164 1   
   165  163  166 1   
   166  163  172 1   
   167  164  165 2   
   168  164  177 1   
   169  166  167 1   
   170  166  173 1   
   171  166  174 1   
   172  167  168 1   
   173  167  175 1   
   174  167  176 1   
   175  168  169 1   
   176  168  170 1   
   177  177  178 1   
   178  177  182 1   
   179  178  179 1   
   180  178  180 1   
   181  178  181 1   
   182  184  185 1   
   183  184  186 1   
   184  187  188 1   
   185  187  189 1   
   186  190  191 1   
   187  190  192 1   
@<TRIPOS>SUBSTRUCTURE
     1 MOL         1 TEMP              0 ****  ****    0 ROOT
