@<TRIPOS>MOLECULE
MOL
  188   182     1     0     0
SMALL
resp


@<TRIPOS>ATOM
      1 C1         -6.5920    3.4990   -2.2980 c3        1 MOL     -0.234306
      2 C2         -6.6550    2.4890   -1.1370 c         1 MOL      0.584046
      3 O1         -5.7630    1.6180   -1.0520 o         1 MOL     -0.545229
      4 H1         -5.9480    3.1070   -3.0850 hc        1 MOL      0.057144
      5 H2         -7.5940    3.6600   -2.6950 hc        1 MOL      0.057144
      6 H3         -6.1880    4.4450   -1.9360 hc        1 MOL      0.057144
      7 N1         -7.6640    2.6280   -0.2270 n         1 MOL     -0.521365
      8 C3         -7.9400    1.7670    0.8770 c3        1 MOL      0.156766
      9 C4         -8.5050    0.3710    0.7690 c         1 MOL      0.385623
     10 O2         -9.3770   -0.0460    1.5400 o         1 MOL     -0.494329
     11 C5         -6.7490    1.8010    1.8250 c3        1 MOL     -0.435080
     12 C6         -7.2980    1.5470    3.2370 c         1 MOL      0.767957
     13 O3         -6.7470    0.7410    4.0230 o         1 MOL     -0.673118
     14 O4         -8.2410    2.2520    3.6250 o         1 MOL     -0.673118
     15 H4         -8.2480    3.4580   -0.2910 hn        1 MOL      0.326265
     16 H5         -8.8190    2.2580    1.3120 h1        1 MOL      0.041542
     17 H6         -6.2190    2.7520    1.7390 hc        1 MOL      0.153169
     18 H7         -6.0780    0.9720    1.6040 hc        1 MOL      0.153169
     19 N2         -7.8640   -0.3220   -0.1470 n         1 MOL     -0.119262
     20 C7         -8.1100   -1.6920   -0.5900 c3        1 MOL      0.144858
     21 C8         -6.8750   -2.4090   -1.2380 c         1 MOL      0.574416
     22 O5         -6.7650   -2.6080   -2.4390 o         1 MOL     -0.536670
     23 C9         -9.3730   -1.7550   -1.5010 c3        1 MOL     -0.278695
     24 C10        -9.3390   -0.6210   -2.5960 c3        1 MOL     -0.000968
     25 C11       -10.6540   -0.6390   -3.3320 c3        1 MOL      0.030609
     26 C12       -10.6960    0.5520   -4.2800 c3        1 MOL      0.118561
     27 N3        -11.8380    0.4450   -5.1900 n4        1 MOL     -0.165652
     28 H8         -7.1390    0.2520   -0.5530 hn        1 MOL      0.103607
     29 H9         -8.3210   -2.4130    0.1990 h1        1 MOL      0.025677
     30 H10       -10.2560   -1.6070   -0.8920 hc        1 MOL      0.083088
     31 H11        -9.3210   -2.7210   -1.9980 hc        1 MOL      0.083088
     32 H12        -8.5390   -0.8510   -3.3080 hc        1 MOL      0.022988
     33 H13        -9.3550    0.3740   -2.1460 hc        1 MOL      0.022988
     34 H14       -11.4780   -0.5300   -2.6240 hc        1 MOL      0.016820
     35 H15       -10.8160   -1.5210   -3.9540 hc        1 MOL      0.016820
     36 H16        -9.7970    0.6330   -4.8860 hx        1 MOL      0.023846
     37 H17       -10.7960    1.4770   -3.7180 hx        1 MOL      0.023846
     38 H18       -11.7780    1.2570   -5.7940 hn        1 MOL      0.204317
     39 H19       -11.7700   -0.3040   -5.8720 hn        1 MOL      0.204317
     40 H20       -12.7500    0.3190   -4.7890 hn        1 MOL      0.204317
     41 N4         -5.9440   -2.5430   -0.3470 n         1 MOL     -0.510432
     42 C13        -4.5600   -2.8530   -0.6670 c3        1 MOL      0.038209
     43 C14        -3.9650   -3.7770    0.3650 c         1 MOL      0.526806
     44 O6         -4.1590   -3.7400    1.5960 o         1 MOL     -0.451985
     45 C15        -3.9050   -1.5330   -0.7970 c3        1 MOL     -0.002558
     46 C16        -2.3830   -1.6860   -1.0840 c         1 MOL      0.678350
     47 O7         -2.0150   -1.6650   -2.2600 o         1 MOL     -0.727184
     48 O8         -1.4650   -1.8490   -0.1940 o         1 MOL     -0.727184
     49 H21        -6.1660   -2.2140    0.5760 hn        1 MOL      0.267619
     50 H22        -4.4770   -3.2830   -1.6670 h1        1 MOL      0.046263
     51 H23        -4.0840   -0.9900    0.1280 hc        1 MOL      0.028413
     52 H24        -4.4010   -0.9590   -1.5790 hc        1 MOL      0.028413
     53 N5         -3.1210   -4.7000   -0.2010 n         1 MOL     -0.428704
     54 C17        -2.5070   -5.7430    0.5660 c3        1 MOL     -0.124078
     55 C18        -1.6080   -5.3150    1.6890 c         1 MOL      0.485421
     56 O9         -1.2860   -6.0870    2.5780 o         1 MOL     -0.551856
     57 H25        -3.0020   -4.6920   -1.2080 hn        1 MOL      0.313230
     58 H26        -1.9830   -6.4170   -0.1150 h1        1 MOL      0.107818
     59 H27        -3.1860   -6.4190    1.0830 h1        1 MOL      0.107818
     60 N6         -1.2110   -4.0610    1.6990 n         1 MOL     -0.242470
     61 C19        -0.5700   -3.3430    2.8940 c3        1 MOL      0.007820
     62 C20        -1.0420   -1.9440    3.2480 c         1 MOL      0.580972
     63 O10        -0.3600   -1.0570    3.7420 o         1 MOL     -0.601031
     64 C21         0.9600   -3.5610    2.9060 c3        1 MOL     -0.199127
     65 C22         1.6840   -2.8900    1.7760 c         1 MOL      0.651059
     66 N7          2.9960   -2.7690    1.8480 n         1 MOL     -0.917731
     67 O11         1.1100   -2.3410    0.8690 o         1 MOL     -0.571932
     68 H28        -1.4200   -3.4130    0.9510 hn        1 MOL      0.141439
     69 H29        -0.9380   -3.8870    3.7560 h1        1 MOL      0.112455
     70 H30         1.1510   -4.6340    2.8140 hc        1 MOL      0.090348
     71 H31         1.4260   -3.3580    3.8740 hc        1 MOL      0.090348
     72 H32         3.4790   -3.3680    2.5050 hn        1 MOL      0.410872
     73 H33         3.4220   -2.0770    1.2500 hn        1 MOL      0.410872
     74 N8         -2.3630   -1.7220    3.1250 n         1 MOL     -0.418020
     75 C23        -2.9710   -0.4660    3.5900 c3        1 MOL      0.037055
     76 C24        -2.7250    0.8150    2.8490 c         1 MOL      0.394212
     77 O12        -3.2870    1.8390    3.2430 o         1 MOL     -0.511507
     78 H34        -2.9950   -2.4240    2.7660 hn        1 MOL      0.244966
     79 H35        -2.9360   -0.3670    4.6780 h1        1 MOL      0.086139
     80 H36        -4.0460   -0.6450    3.6080 h1        1 MOL      0.086139
     81 N9         -2.0590    0.7110    1.7370 n         1 MOL     -0.313311
     82 C25        -1.5700    1.8610    0.9650 c3        1 MOL      0.039867
     83 C26        -0.1100    1.6030    0.4900 c         1 MOL      0.408495
     84 O13         0.2800    0.5530   -0.0020 o         1 MOL     -0.510623
     85 C27        -2.5710    2.3060   -0.1600 c3        1 MOL     -0.065237
     86 C28        -2.2140    3.6470   -0.7340 ca        1 MOL      0.009337
     87 C29        -2.1000    4.7810    0.1110 ca        1 MOL     -0.083826
     88 C30        -1.8050    3.6450   -2.0810 ca        1 MOL     -0.083826
     89 C31        -1.7320    5.9780   -0.5220 ca        1 MOL     -0.289724
     90 C32        -1.6050    4.8730   -2.6790 ca        1 MOL     -0.289724
     91 C33        -1.5320    6.0710   -1.9240 ca        1 MOL      0.404395
     92 O14        -1.1180    7.2120   -2.5370 oh        1 MOL     -0.540163
     93 H37        -1.6080   -0.1500    1.4700 hn        1 MOL      0.289010
     94 H38        -1.5320    2.6270    1.7430 h1        1 MOL      0.072001
     95 H39        -3.5730    2.3510    0.2550 hc        1 MOL      0.054026
     96 H40        -2.5380    1.4780   -0.8730 hc        1 MOL      0.054026
     97 H41        -2.2760    4.6020    1.1620 ha        1 MOL      0.126611
     98 H42        -1.9670    2.7170   -2.6130 ha        1 MOL      0.126611
     99 H43        -1.5980    6.9350   -0.0370 ha        1 MOL      0.134703
    100 H44        -1.5740    4.7470   -3.7520 ha        1 MOL      0.134703
    101 H45        -0.5310    7.1380   -3.2900 ho        1 MOL      0.396302
    102 N10         0.7150    2.6640    0.5740 n         1 MOL     -0.308035
    103 C34         2.1230    2.6090    0.3460 c3        1 MOL     -0.041958
    104 C35         2.8730    1.6480    1.2950 c         1 MOL      0.350121
    105 O15         3.8040    0.9760    0.8330 o         1 MOL     -0.611225
    106 C36         2.6520    4.0490    0.3220 c3        1 MOL      0.049302
    107 C37         2.0200    4.9490   -0.7860 c3        1 MOL     -0.225732
    108 C38         4.1610    4.1340    0.2060 c3        1 MOL     -0.174618
    109 C39         2.6090    4.7190   -2.1520 c3        1 MOL     -0.133758
    110 H46         0.4260    3.5190    1.0180 hn        1 MOL      0.239573
    111 H47         2.2350    2.1830   -0.6510 h1        1 MOL      0.111246
    112 H48         2.4370    4.4650    1.3050 hc        1 MOL      0.003393
    113 H49         2.2550    5.9890   -0.5480 hc        1 MOL      0.100741
    114 H50         0.9450    4.7760   -0.7510 hc        1 MOL      0.100741
    115 H51         4.4980    5.1700    0.1300 hc        1 MOL      0.075189
    116 H52         4.6150    3.6620    1.0700 hc        1 MOL      0.075189
    117 H53         4.4530    3.5560   -0.6640 hc        1 MOL      0.075189
    118 H54         3.6530    5.0280   -2.1980 hc        1 MOL      0.042444
    119 H55         2.7440    3.6540   -2.3870 hc        1 MOL      0.042444
    120 H56         1.9210    5.1420   -2.8760 hc        1 MOL      0.042444
    121 N11         2.4970    1.4600    2.5440 n         1 MOL     -0.049591
    122 C40         2.9210    0.4410    3.4590 c3        1 MOL     -0.277816
    123 C41         4.4370    0.2480    3.6910 c         1 MOL      0.677554
    124 O16         4.9090   -0.8960    3.8950 o         1 MOL     -0.573321
    125 C42         2.3140    0.6130    4.8160 c3        1 MOL      0.139629
    126 O17         2.6410    1.8640    5.3310 oh        1 MOL     -0.646589
    127 H57         1.7970    2.1020    2.8900 hn        1 MOL      0.235032
    128 H58         2.6170   -0.5410    3.0970 h1        1 MOL      0.146440
    129 H59         2.5760   -0.1930    5.4910 h1        1 MOL      0.073657
    130 H60         1.2250    0.5240    4.7460 h1        1 MOL      0.073657
    131 H61         2.6840    1.7870    6.2930 ho        1 MOL      0.434609
    132 N12         5.1920    1.3470    3.5720 n         1 MOL     -0.510831
    133 C43         6.6310    1.4190    3.5110 c3        1 MOL      0.248988
    134 C44         7.2910    0.7270    2.3550 c         1 MOL      0.582032
    135 O18         8.5270    0.5590    2.3800 o         1 MOL     -0.563092
    136 C45         7.2580    1.1070    4.8540 c3        1 MOL     -0.517263
    137 H62         4.7640    2.2540    3.4340 hn        1 MOL      0.286907
    138 H63         6.8400    2.4490    3.2370 h1        1 MOL      0.031619
    139 H64         8.2290    1.6110    4.8730 hc        1 MOL      0.150226
    140 H65         6.5840    1.4150    5.6580 hc        1 MOL      0.150226
    141 H66         7.3980    0.0350    4.9030 hc        1 MOL      0.150226
    142 N13         6.5320    0.1140    1.4620 n         1 MOL     -0.715325
    143 C46         7.0090   -0.8030    0.4780 c3        1 MOL      0.070612
    144 C47         7.8810   -0.2080   -0.5910 c         1 MOL      0.568359
    145 O19         7.5990    0.8680   -1.0880 o         1 MOL     -0.512837
    146 C48         5.7790   -1.4680   -0.1540 c3        1 MOL     -0.099598
    147 H67         5.5540    0.0470    1.6960 hn        1 MOL      0.520793
    148 H68         7.6000   -1.5540    1.0030 h1        1 MOL      0.066941
    149 H69         5.2260   -0.7270   -0.7440 hc        1 MOL      0.022269
    150 H70         6.0690   -2.2370   -0.8690 hc        1 MOL      0.022269
    151 H71         5.1280   -1.9510    0.5630 hc        1 MOL      0.022269
    152 N14         8.9090   -0.9640   -1.0060 n         1 MOL     -0.378915
    153 C49         9.7890   -0.7120   -2.1350 c3        1 MOL     -0.313097
    154 C50        10.3690    0.6770   -2.3500 c         1 MOL      0.445696
    155 O20        11.0290    0.9850   -3.3470 o         1 MOL     -0.517622
    156 C51         9.1090   -1.2550   -3.4420 c3        1 MOL      0.398647
    157 C52         8.6140   -2.7260   -3.3640 c3        1 MOL     -0.233480
    158 C53         7.9650   -3.0710   -4.6820 c         1 MOL      0.610882
    159 O21         8.6470   -3.3520   -5.6620 o         1 MOL     -0.655150
    160 O22         6.7110   -2.8900   -4.8530 o         1 MOL     -0.655150
    161 H72         9.0250   -1.7580   -0.3940 hn        1 MOL      0.267640
    162 H73        10.6010   -1.3850   -1.8380 h1        1 MOL      0.156299
    163 H74         9.7850   -1.1590   -4.2940 hc        1 MOL     -0.025530
    164 H75         8.2190   -0.6730   -3.6970 hc        1 MOL     -0.025530
    165 H76         7.9260   -2.8470   -2.5270 hc        1 MOL      0.009672
    166 H77         9.5050   -3.3500   -3.2960 hc        1 MOL      0.009672
    167 N15        10.2620    1.5990   -1.3920 n         1 MOL     -0.211668
    168 C54        10.6470    3.0170   -1.5100 c3        1 MOL     -0.112008
    169 H78        11.0870    3.1930   -2.4910 h1        1 MOL      0.072981
    170 H79         9.7640    3.6450   -1.3890 h1        1 MOL      0.072981
    171 H80        11.3750    3.2610   -0.7370 h1        1 MOL      0.072981
    172 H81         9.8100    1.3240   -0.5340 hn        1 MOL      0.215769
    173 Ca1         0.7590   -1.4310   -1.5810 Ca        1 MOL      1.770804
    174 O23         0.4320    0.6030   -3.4330 oh        1 MOL     -0.837293
    175 H82        -0.1780    0.2990   -4.0970 ho        1 MOL      0.416260
    176 H83         1.1290    1.0470   -3.9280 ho        1 MOL      0.416260
    177 O24         3.1660   -0.1540   -1.8280 oh        1 MOL     -0.837293
    178 H84         3.5130    0.2800   -1.0470 ho        1 MOL      0.416260
    179 H85         3.6570    0.2450   -2.5540 ho        1 MOL      0.416260
    180 O25         3.1990   -3.2240   -1.4310 oh        1 MOL     -0.837293
    181 H86         3.1680   -3.8550   -0.7040 ho        1 MOL      0.416260
    182 H87         3.9110   -3.5340   -1.9900 ho        1 MOL      0.416260
    183 O26         1.7040   -1.8880   -3.9830 oh        1 MOL     -0.837293
    184 H88         2.2000   -2.6450   -4.3140 ho        1 MOL      0.416260
    185 H89         2.0830   -1.1420   -4.4470 ho        1 MOL      0.416260
    186 O27         0.0730   -4.0030   -1.8190 oh        1 MOL     -0.837293
    187 H90         0.0910   -4.7980   -1.2910 ho        1 MOL      0.416260
    188 H91        -0.0340   -4.3090   -2.7260 ho        1 MOL      0.416260
@<TRIPOS>BOND
     1    1    2 1   
     2    1    4 1   
     3    1    5 1   
     4    1    6 1   
     5    2    3 2   
     6    2    7 1   
     7    7    8 1   
     8    7   15 1   
     9    8    9 1   
    10    8   11 1   
    11    8   16 1   
    12    9   10 2   
    13    9   19 1   
    14   11   12 1   
    15   11   17 1   
    16   11   18 1   
    17   12   13 1   
    18   12   14 1   
    19   19   20 1   
    20   19   28 1   
    21   20   21 1   
    22   20   23 1   
    23   20   29 1   
    24   21   22 2   
    25   21   41 1   
    26   23   24 1   
    27   23   30 1   
    28   23   31 1   
    29   24   25 1   
    30   24   32 1   
    31   24   33 1   
    32   25   26 1   
    33   25   34 1   
    34   25   35 1   
    35   26   27 1   
    36   26   36 1   
    37   26   37 1   
    38   27   38 1   
    39   27   39 1   
    40   27   40 1   
    41   41   42 1   
    42   41   49 1   
    43   42   43 1   
    44   42   45 1   
    45   42   50 1   
    46   43   44 2   
    47   43   53 1   
    48   45   46 1   
    49   45   51 1   
    50   45   52 1   
    51   46   47 1   
    52   46   48 1   
    53   53   54 1   
    54   53   57 1   
    55   54   55 1   
    56   54   58 1   
    57   54   59 1   
    58   55   56 2   
    59   55   60 1   
    60   60   61 1   
    61   60   68 1   
    62   61   62 1   
    63   61   64 1   
    64   61   69 1   
    65   62   63 2   
    66   62   74 1   
    67   64   65 1   
    68   64   70 1   
    69   64   71 1   
    70   65   66 1   
    71   65   67 2   
    72   66   72 1   
    73   66   73 1   
    74   74   75 1   
    75   74   78 1   
    76   75   76 1   
    77   75   79 1   
    78   75   80 1   
    79   76   77 2   
    80   76   81 1   
    81   81   82 1   
    82   81   93 1   
    83   82   83 1   
    84   82   85 1   
    85   82   94 1   
    86   83   84 2   
    87   83  102 1   
    88   85   86 1   
    89   85   95 1   
    90   85   96 1   
    91   86   87 ar  
    92   86   88 ar  
    93   87   89 ar  
    94   87   97 1   
    95   88   90 ar  
    96   88   98 1   
    97   89   91 ar  
    98   89   99 1   
    99   90   91 ar  
   100   90  100 1   
   101   91   92 1   
   102   92  101 1   
   103  102  103 1   
   104  102  110 1   
   105  103  104 1   
   106  103  106 1   
   107  103  111 1   
   108  104  105 2   
   109  104  121 1   
   110  106  107 1   
   111  106  108 1   
   112  106  112 1   
   113  107  109 1   
   114  107  113 1   
   115  107  114 1   
   116  108  115 1   
   117  108  116 1   
   118  108  117 1   
   119  109  118 1   
   120  109  119 1   
   121  109  120 1   
   122  121  122 1   
   123  121  127 1   
   124  122  123 1   
   125  122  125 1   
   126  122  128 1   
   127  123  124 2   
   128  123  132 1   
   129  125  126 1   
   130  125  129 1   
   131  125  130 1   
   132  126  131 1   
   133  132  133 1   
   134  132  137 1   
   135  133  134 1   
   136  133  136 1   
   137  133  138 1   
   138  134  135 2   
   139  134  142 1   
   140  136  139 1   
   141  136  140 1   
   142  136  141 1   
   143  142  143 1   
   144  142  147 1   
   145  143  144 1   
   146  143  146 1   
   147  143  148 1   
   148  144  145 2   
   149  144  152 1   
   150  146  149 1   
   151  146  150 1   
   152  146  151 1   
   153  152  153 1   
   154  152  161 1   
   155  153  154 1   
   156  153  156 1   
   157  153  162 1   
   158  154  155 2   
   159  154  167 1   
   160  156  157 1   
   161  156  163 1   
   162  156  164 1   
   163  157  158 1   
   164  157  165 1   
   165  157  166 1   
   166  158  159 1   
   167  158  160 1   
   168  167  168 1   
   169  167  172 1   
   170  168  169 1   
   171  168  170 1   
   172  168  171 1   
   173  174  175 1   
   174  174  176 1   
   175  177  178 1   
   176  177  179 1   
   177  180  181 1   
   178  180  182 1   
   179  183  184 1   
   180  183  185 1   
   181  186  187 1   
   182  186  188 1   
@<TRIPOS>SUBSTRUCTURE
     1 MOL         1 TEMP              0 ****  ****    0 ROOT
