@<TRIPOS>MOLECULE
MOL
  185   180     1     0     0
SMALL
resp


@<TRIPOS>ATOM
      1 C1         -5.1800    1.7060   -3.5130 c3        1 MOL     -0.503575
      2 C2         -6.2490    1.5740   -2.3820 c         1 MOL      0.647239
      3 O1         -5.9010    1.1550   -1.2570 o         1 MOL     -0.571465
      4 H1         -4.1850    1.5740   -3.0880 hc        1 MOL      0.136453
      5 H2         -5.3560    0.9430   -4.2710 hc        1 MOL      0.136453
      6 H3         -5.2520    2.6940   -3.9670 hc        1 MOL      0.136453
      7 N1         -7.5310    1.8210   -2.6110 n         1 MOL     -0.614166
      8 C3         -8.5930    1.7890   -1.6370 c3        1 MOL      0.392546
      9 C4         -8.7660    0.4770   -0.7860 c         1 MOL      0.100753
     10 O2         -9.4990    0.4230    0.2320 o         1 MOL     -0.402338
     11 C5         -8.5430    3.0240   -0.7070 c3        1 MOL     -0.194286
     12 C6         -9.7020    3.2580    0.2080 c         1 MOL      0.666605
     13 O3        -10.7910    3.4160   -0.3770 o         1 MOL     -0.643115
     14 O4         -9.4670    3.4090    1.4510 o         1 MOL     -0.643115
     15 H4         -7.8500    2.0290   -3.5460 hn        1 MOL      0.314488
     16 H5         -9.5250    1.8860   -2.1820 h1        1 MOL     -0.038307
     17 H6         -8.3910    3.8760   -1.3770 hc        1 MOL      0.059505
     18 H7         -7.6060    2.9780   -0.1390 hc        1 MOL      0.059505
     19 N2         -8.0620   -0.5900   -1.1610 n         1 MOL     -0.117369
     20 C7         -8.2770   -1.8770   -0.4270 c3        1 MOL      0.115768
     21 C8         -7.1020   -2.3410    0.3600 c         1 MOL      0.468021
     22 O5         -7.1860   -3.3920    1.0290 o         1 MOL     -0.541851
     23 C9         -8.8330   -2.8730   -1.4230 c3        1 MOL     -0.104245
     24 C10        -9.9710   -2.3510   -2.3110 c3        1 MOL      0.010456
     25 C11       -10.5020   -3.4670   -3.2490 c3        1 MOL     -0.214696
     26 C12       -11.7050   -2.8120   -4.0430 c3        1 MOL     -0.064530
     27 N3        -12.2860   -3.8280   -4.9880 n4        1 MOL     -0.052731
     28 H8         -7.3990   -0.5750   -1.9210 hn        1 MOL      0.172868
     29 H9         -9.0720   -1.7140    0.3060 h1        1 MOL      0.127651
     30 H10        -9.2640   -3.6420   -0.7850 hc        1 MOL      0.012211
     31 H11        -8.0650   -3.2180   -2.1240 hc        1 MOL      0.012211
     32 H12        -9.6490   -1.4780   -2.8650 hc        1 MOL      0.033113
     33 H13       -10.7390   -2.0810   -1.5800 hc        1 MOL      0.033113
     34 H14       -10.9240   -4.2790   -2.6590 hc        1 MOL      0.103089
     35 H15        -9.6240   -3.8140   -3.7910 hc        1 MOL      0.103089
     36 H16       -11.4270   -1.9210   -4.6110 hx        1 MOL      0.113507
     37 H17       -12.5140   -2.5950   -3.3420 hx        1 MOL      0.113507
     38 H18       -12.2240   -4.7360   -4.5450 hn        1 MOL      0.192005
     39 H19       -13.2610   -3.6300   -5.1580 hn        1 MOL      0.192005
     40 H20       -11.7950   -4.0090   -5.8530 hn        1 MOL      0.192005
     41 N4         -6.0020   -1.5890    0.2550 n         1 MOL     -0.343497
     42 C13        -4.6950   -2.0150    0.7070 c3        1 MOL     -0.035694
     43 C14        -4.7020   -2.1070    2.2770 c         1 MOL      0.598169
     44 O6         -5.3730   -1.3400    2.9370 o         1 MOL     -0.471705
     45 C15        -3.7080   -1.0940    0.0350 c3        1 MOL     -0.463385
     46 C16        -2.2940   -1.5600    0.3450 c         1 MOL      0.858120
     47 O7         -1.4660   -1.6260   -0.5920 o         1 MOL     -0.753315
     48 O8         -1.8890   -1.7160    1.5340 o         1 MOL     -0.753315
     49 H21        -6.0030   -0.8960   -0.4830 hn        1 MOL      0.288348
     50 H22        -4.4070   -2.9900    0.3200 h1        1 MOL      0.032412
     51 H23        -3.8270   -0.1240    0.5250 hc        1 MOL      0.165047
     52 H24        -3.8850   -1.1490   -1.0330 hc        1 MOL      0.165047
     53 N5         -3.9280   -3.0690    2.8560 n         1 MOL     -0.423596
     54 C17        -3.8810   -3.4260    4.2970 c3        1 MOL     -0.148849
     55 C18        -2.8930   -2.4580    4.9830 c         1 MOL      0.574547
     56 O9         -2.7900   -2.5020    6.2000 o         1 MOL     -0.578376
     57 H25        -3.2860   -3.5610    2.2460 hn        1 MOL      0.237116
     58 H26        -3.4340   -4.4090    4.4590 h1        1 MOL      0.118452
     59 H27        -4.8550   -3.4330    4.7790 h1        1 MOL      0.118452
     60 N6         -2.0320   -1.7270    4.2550 n         1 MOL     -0.262149
     61 C19        -1.2140   -0.6500    4.7250 c3        1 MOL     -0.021120
     62 C20        -1.3310    0.7040    3.9860 c         1 MOL      0.533368
     63 O10        -1.2540    1.6730    4.6550 o         1 MOL     -0.538470
     64 C21         0.2200   -0.9880    5.0260 c3        1 MOL     -0.204078
     65 C22         1.0800   -1.2670    3.8280 c         1 MOL      0.541051
     66 N7          2.0540   -0.4700    3.7140 n         1 MOL     -0.640433
     67 O11         0.8070   -2.0850    2.9590 o         1 MOL     -0.558103
     68 H28        -1.9870   -1.8700    3.2590 hn        1 MOL      0.128349
     69 H29        -1.6540   -0.4360    5.6990 h1        1 MOL      0.115659
     70 H30         0.2530   -1.8180    5.7350 hc        1 MOL      0.078407
     71 H31         0.6310   -0.1930    5.6440 hc        1 MOL      0.078407
     72 H32         2.2420    0.1280    4.5000 hn        1 MOL      0.342380
     73 H33         2.6760   -0.5210    2.9190 hn        1 MOL      0.342380
     74 N8         -1.4980    0.7430    2.6530 n         1 MOL     -0.353499
     75 C23        -1.5230    2.0170    1.8680 c3        1 MOL      0.008917
     76 C24        -0.1770    2.4290    1.2470 c         1 MOL      0.560575
     77 O12         0.9070    1.9290    1.6430 o         1 MOL     -0.517013
     78 H34        -1.4560   -0.1470    2.1700 hn        1 MOL      0.252541
     79 H35        -1.7960    2.8950    2.4360 h1        1 MOL      0.081961
     80 H36        -2.2920    1.8980    1.1010 h1        1 MOL      0.081961
     81 N9         -0.1460    3.4270    0.3410 n         1 MOL     -0.583035
     82 C25         1.1440    3.9320   -0.2340 c3        1 MOL      0.203906
     83 C26         1.9680    2.8300   -0.8840 c         1 MOL      0.423559
     84 O13         1.3970    1.8480   -1.3490 o         1 MOL     -0.481020
     85 C27         0.7810    4.9840   -1.2980 c3        1 MOL     -0.148053
     86 C28        -0.0860    6.1200   -0.7370 ca        1 MOL      0.017247
     87 C29        -1.4490    6.1540   -1.1160 ca        1 MOL     -0.163903
     88 C30         0.5330    7.1430    0.1340 ca        1 MOL     -0.163903
     89 C31        -2.1980    7.3030   -0.8120 ca        1 MOL     -0.258142
     90 C32        -0.2910    8.2600    0.4710 ca        1 MOL     -0.258142
     91 C33        -1.6250    8.3070    0.0050 ca        1 MOL      0.337003
     92 O14        -2.4140    9.3640    0.3120 oh        1 MOL     -0.453222
     93 H37        -1.0150    3.8450    0.0400 hn        1 MOL      0.332336
     94 H38         1.7720    4.3950    0.5330 h1        1 MOL      0.028084
     95 H39         0.2880    4.4470   -2.1000 hc        1 MOL      0.085009
     96 H40         1.7050    5.4560   -1.6500 hc        1 MOL      0.085009
     97 H41        -1.8990    5.4170   -1.7540 ha        1 MOL      0.144944
     98 H42         1.5990    7.1360    0.3320 ha        1 MOL      0.144944
     99 H43        -3.2390    7.4190   -1.0840 ha        1 MOL      0.166466
    100 H44         0.0680    8.9880    1.1790 ha        1 MOL      0.166466
    101 H45        -1.9080    9.9720    0.8650 ho        1 MOL      0.346293
    102 N10         3.2590    3.0710   -1.1280 n         1 MOL     -0.510136
    103 C34         4.2430    2.1070   -1.6800 c3        1 MOL     -0.042524
    104 C35         5.1640    1.6990   -0.5200 c         1 MOL      0.561954
    105 O15         5.3330    0.5100   -0.3530 o         1 MOL     -0.479416
    106 C36         5.0680    2.7330   -2.8470 c3        1 MOL      0.231632
    107 C37         4.1670    3.7010   -3.6990 c3        1 MOL      0.132249
    108 C38         5.7390    1.6640   -3.7010 c3        1 MOL     -0.288432
    109 C39         3.1140    3.0320   -4.6270 c3        1 MOL     -0.160608
    110 H46         3.5380    4.0110   -0.8820 hn        1 MOL      0.286049
    111 H47         3.8170    1.1920   -2.0940 h1        1 MOL      0.108186
    112 H48         5.7740    3.4570   -2.4340 hc        1 MOL     -0.073291
    113 H49         4.8670    4.2950   -4.3010 hc        1 MOL     -0.059624
    114 H50         3.6690    4.4350   -3.0630 hc        1 MOL     -0.059624
    115 H51         5.0290    0.9640   -4.1310 hc        1 MOL      0.075194
    116 H52         6.2880    2.1690   -4.4960 hc        1 MOL      0.075194
    117 H53         6.5150    1.2120   -3.0810 hc        1 MOL      0.075194
    118 H54         2.5530    3.8000   -5.1570 hc        1 MOL      0.046366
    119 H55         3.5380    2.3480   -5.3610 hc        1 MOL      0.046366
    120 H56         2.4120    2.5090   -3.9730 hc        1 MOL      0.046366
    121 N11         5.6000    2.6030    0.2850 n         1 MOL     -0.209631
    122 C40         6.5280    2.3240    1.4300 c3        1 MOL     -0.572574
    123 C41         7.8870    1.7360    1.1190 c         1 MOL      0.506217
    124 O16         8.4420    1.0840    2.0010 o         1 MOL     -0.452036
    125 C42         6.6480    3.6630    2.3050 c3        1 MOL      0.371246
    126 O17         5.3320    3.9280    2.7420 oh        1 MOL     -0.653919
    127 H57         5.2730    3.5580    0.2180 hn        1 MOL      0.245354
    128 H58         5.9840    1.5260    1.9410 h1        1 MOL      0.229614
    129 H59         7.1730    4.4600    1.7840 h1        1 MOL      0.039258
    130 H60         7.3610    3.6510    3.1330 h1        1 MOL      0.039258
    131 H61         5.0360    3.2590    3.3570 ho        1 MOL      0.432795
    132 N12         8.3580    2.0170   -0.1010 n         1 MOL     -0.350753
    133 C43         9.4730    1.3140   -0.7200 c3        1 MOL      0.283654
    134 C44         9.4830   -0.1980   -0.3940 c         1 MOL      0.261411
    135 O18        10.5300   -0.7500   -0.0140 o         1 MOL     -0.495530
    136 C45        10.8390    2.0200   -0.4180 c3        1 MOL     -0.435676
    137 H62         7.8880    2.6930   -0.6830 hn        1 MOL      0.237261
    138 H63         9.4200    1.3890   -1.8050 h1        1 MOL      0.036001
    139 H64        10.7860    3.0200   -0.8430 hc        1 MOL      0.118864
    140 H65        11.0510    2.1120    0.6470 hc        1 MOL      0.118864
    141 H66        11.6970    1.5170   -0.8680 hc        1 MOL      0.118864
    142 N13         8.3320   -0.7670   -0.2390 n         1 MOL     -0.202333
    143 C46         8.1100   -2.1180    0.1690 c3        1 MOL      0.382689
    144 C47         7.1700   -2.7590   -0.8930 c         1 MOL      0.373058
    145 O19         6.6120   -2.0040   -1.6400 o         1 MOL     -0.435044
    146 C48         7.4850   -2.2800    1.4810 c3        1 MOL     -0.126777
    147 H67         7.5480   -0.2000   -0.5210 hn        1 MOL      0.074758
    148 H68         9.0820   -2.6160    0.0730 h1        1 MOL     -0.044277
    149 H69         6.4560   -1.9210    1.5160 hc        1 MOL      0.038845
    150 H70         7.3600   -3.3500    1.6590 hc        1 MOL      0.038845
    151 H71         8.0380   -1.9520    2.3570 hc        1 MOL      0.038845
    152 N14         7.0530   -4.0980   -0.9500 n         1 MOL     -0.507132
    153 C49         6.1400   -4.8260   -1.8580 c3        1 MOL      0.118729
    154 C50         6.3060   -4.4600   -3.3210 c         1 MOL      0.422720
    155 O20         5.3650   -4.4440   -4.1180 o         1 MOL     -0.509652
    156 C51         4.6990   -4.5740   -1.2490 c3        1 MOL      0.049361
    157 C52         4.4580   -4.8470    0.2280 c3        1 MOL      0.108270
    158 C53         3.1210   -4.3600    0.6390 c         1 MOL      0.577076
    159 O21         2.9460   -3.1640    1.0160 o         1 MOL     -0.725629
    160 O22         2.0940   -5.0290    0.3870 o         1 MOL     -0.725629
    161 H72         7.6290   -4.6730   -0.3340 hn        1 MOL      0.281863
    162 H73         6.4460   -5.8680   -1.8710 h1        1 MOL      0.040653
    163 H74         3.9940   -5.1780   -1.8270 hc        1 MOL     -0.011069
    164 H75         4.4420   -3.5340   -1.4840 hc        1 MOL     -0.011069
    165 H76         5.2360   -4.3780    0.8340 hc        1 MOL     -0.052195
    166 H77         4.5250   -5.9230    0.3680 hc        1 MOL     -0.052195
    167 N15         7.5840   -4.2480   -3.6900 n         1 MOL     -0.322007
    168 C54         7.9380   -3.5780   -4.9620 c3        1 MOL     -0.060221
    169 H78         7.0330   -3.3930   -5.5390 h1        1 MOL      0.067824
    170 H79         8.4320   -2.6300   -4.7490 h1        1 MOL      0.067824
    171 H80         8.6100   -4.2170   -5.5360 h1        1 MOL      0.067824
    172 H81         8.3100   -4.5630   -3.0730 hn        1 MOL      0.246334
    173 Ca1         0.4360   -2.9420    0.6050 Ca        1 MOL      1.773100
    174 O23         1.6400   -2.1050   -1.7490 oh        1 MOL     -0.835291
    175 H82         2.4810   -1.6660   -1.8710 ho        1 MOL      0.416549
    176 H83         1.7020   -2.8920   -2.2760 ho        1 MOL      0.416549
    177 O24        -0.5730   -4.4610   -1.3690 oh        1 MOL     -0.835291
    178 H84        -0.3380   -5.3000   -1.7740 ho        1 MOL      0.416549
    179 H85        -0.9560   -3.9510   -2.0830 ho        1 MOL      0.416549
    180 O25        -0.8840   -4.6900    2.0100 oh        1 MOL     -0.835291
    181 H86        -0.5710   -5.1550    2.7920 ho        1 MOL      0.416549
    182 H87        -1.7840   -4.9980    1.8840 ho        1 MOL      0.416549
    183 O26         1.2760   -0.4970    0.3510 oh        1 MOL     -0.835291
    184 H88         1.3170   -0.2850   -0.5860 ho        1 MOL      0.416549
    185 H89         1.4910    0.3230    0.7890 ho        1 MOL      0.416549
@<TRIPOS>BOND
     1    1    2 1   
     2    1    4 1   
     3    1    5 1   
     4    1    6 1   
     5    2    3 2   
     6    2    7 1   
     7    7    8 1   
     8    7   15 1   
     9    8    9 1   
    10    8   11 1   
    11    8   16 1   
    12    9   10 2   
    13    9   19 1   
    14   11   12 1   
    15   11   17 1   
    16   11   18 1   
    17   12   13 1   
    18   12   14 1   
    19   19   20 1   
    20   19   28 1   
    21   20   21 1   
    22   20   23 1   
    23   20   29 1   
    24   21   22 2   
    25   21   41 1   
    26   23   24 1   
    27   23   30 1   
    28   23   31 1   
    29   24   25 1   
    30   24   32 1   
    31   24   33 1   
    32   25   26 1   
    33   25   34 1   
    34   25   35 1   
    35   26   27 1   
    36   26   36 1   
    37   26   37 1   
    38   27   38 1   
    39   27   39 1   
    40   27   40 1   
    41   41   42 1   
    42   41   49 1   
    43   42   43 1   
    44   42   45 1   
    45   42   50 1   
    46   43   44 2   
    47   43   53 1   
    48   45   46 1   
    49   45   51 1   
    50   45   52 1   
    51   46   47 1   
    52   46   48 1   
    53   53   54 1   
    54   53   57 1   
    55   54   55 1   
    56   54   58 1   
    57   54   59 1   
    58   55   56 2   
    59   55   60 1   
    60   60   61 1   
    61   60   68 1   
    62   61   62 1   
    63   61   64 1   
    64   61   69 1   
    65   62   63 2   
    66   62   74 1   
    67   64   65 1   
    68   64   70 1   
    69   64   71 1   
    70   65   66 1   
    71   65   67 2   
    72   66   72 1   
    73   66   73 1   
    74   74   75 1   
    75   74   78 1   
    76   75   76 1   
    77   75   79 1   
    78   75   80 1   
    79   76   77 2   
    80   76   81 1   
    81   81   82 1   
    82   81   93 1   
    83   82   83 1   
    84   82   85 1   
    85   82   94 1   
    86   83   84 2   
    87   83  102 1   
    88   85   86 1   
    89   85   95 1   
    90   85   96 1   
    91   86   87 ar  
    92   86   88 ar  
    93   87   89 ar  
    94   87   97 1   
    95   88   90 ar  
    96   88   98 1   
    97   89   91 ar  
    98   89   99 1   
    99   90   91 ar  
   100   90  100 1   
   101   91   92 1   
   102   92  101 1   
   103  102  103 1   
   104  102  110 1   
   105  103  104 1   
   106  103  106 1   
   107  103  111 1   
   108  104  105 2   
   109  104  121 1   
   110  106  107 1   
   111  106  108 1   
   112  106  112 1   
   113  107  109 1   
   114  107  113 1   
   115  107  114 1   
   116  108  115 1   
   117  108  116 1   
   118  108  117 1   
   119  109  118 1   
   120  109  119 1   
   121  109  120 1   
   122  121  122 1   
   123  121  127 1   
   124  122  123 1   
   125  122  125 1   
   126  122  128 1   
   127  123  124 2   
   128  123  132 1   
   129  125  126 1   
   130  125  129 1   
   131  125  130 1   
   132  126  131 1   
   133  132  133 1   
   134  132  137 1   
   135  133  134 1   
   136  133  136 1   
   137  133  138 1   
   138  134  135 2   
   139  134  142 1   
   140  136  139 1   
   141  136  140 1   
   142  136  141 1   
   143  142  143 1   
   144  142  147 1   
   145  143  144 1   
   146  143  146 1   
   147  143  148 1   
   148  144  145 2   
   149  144  152 1   
   150  146  149 1   
   151  146  150 1   
   152  146  151 1   
   153  152  153 1   
   154  152  161 1   
   155  153  154 1   
   156  153  156 1   
   157  153  162 1   
   158  154  155 2   
   159  154  167 1   
   160  156  157 1   
   161  156  163 1   
   162  156  164 1   
   163  157  158 1   
   164  157  165 1   
   165  157  166 1   
   166  158  159 1   
   167  158  160 1   
   168  167  168 1   
   169  167  172 1   
   170  168  169 1   
   171  168  170 1   
   172  168  171 1   
   173  174  175 1   
   174  174  176 1   
   175  177  178 1   
   176  177  179 1   
   177  180  181 1   
   178  180  182 1   
   179  183  184 1   
   180  183  185 1   
@<TRIPOS>SUBSTRUCTURE
     1 MOL         1 TEMP              0 ****  ****    0 ROOT
