@<TRIPOS>MOLECULE
MOL
  186   183     1     0     0
SMALL
resp


@<TRIPOS>ATOM
      1 C1         -6.1600   -4.3770   -3.1370 c3        1 MOL     -0.334571
      2 C2         -6.1990   -3.3220   -2.0150 c         1 MOL      0.614296
      3 O1         -5.1790   -2.9890   -1.3850 o         1 MOL     -0.539775
      4 H1         -6.4180   -5.3530   -2.7260 hc        1 MOL      0.087250
      5 H2         -6.8760   -4.1090   -3.9130 hc        1 MOL      0.087250
      6 H3         -5.1580   -4.4180   -3.5640 hc        1 MOL      0.087250
      7 N1         -7.3200   -2.6260   -1.8780 n         1 MOL     -0.487730
      8 C3         -7.4120   -1.4760   -0.9680 c3        1 MOL     -0.182256
      9 C4         -6.1660   -0.5620   -0.9640 c         1 MOL      0.418656
     10 O2         -5.3880   -0.4560   -0.0270 o         1 MOL     -0.612222
     11 C5         -7.8980   -1.7380    0.4630 c3        1 MOL      0.009351
     12 C6         -7.3190   -3.0400    0.9050 c         1 MOL      0.673281
     13 O3         -6.1520   -3.0020    1.3970 o         1 MOL     -0.724590
     14 O4         -8.0880   -3.9900    1.2510 o         1 MOL     -0.724590
     15 H4         -8.1190   -2.9270   -2.4180 hn        1 MOL      0.331115
     16 H5         -8.2430   -0.9280   -1.4220 h1        1 MOL      0.122980
     17 H6         -8.9750   -1.8740    0.5550 hc        1 MOL      0.041533
     18 H7         -7.4960   -0.9400    1.0820 hc        1 MOL      0.041533
     19 N2         -5.9780    0.1290   -2.0900 n         1 MOL     -0.372738
     20 C7         -5.1320    1.3020   -2.3100 c3        1 MOL     -0.033613
     21 C8         -5.3840    2.5360   -1.3970 c         1 MOL      0.413810
     22 O5         -5.0690    3.6230   -1.8340 o         1 MOL     -0.495023
     23 C9         -3.6140    0.9900   -2.3040 c3        1 MOL      0.401410
     24 C10        -2.6290    2.1530   -2.5780 c3        1 MOL     -0.239724
     25 C11        -3.1470   -0.2070   -3.1570 c3        1 MOL     -0.299318
     26 C12        -2.5830    2.7490   -3.9890 c3        1 MOL     -0.082531
     27 H8         -6.5510   -0.0710   -2.8910 hn        1 MOL      0.282253
     28 H9         -5.2960    1.5700   -3.3520 h1        1 MOL      0.059999
     29 H10        -3.4570    0.6650   -1.2760 hc        1 MOL      0.030530
     30 H11        -1.6250    1.7810   -2.3550 hc        1 MOL      0.114628
     31 H12        -2.7450    2.9600   -1.8540 hc        1 MOL      0.114628
     32 H13        -3.6840   -1.0890   -2.7950 hc        1 MOL      0.051631
     33 H14        -3.5910   -0.0530   -4.1490 hc        1 MOL      0.051631
     34 H15        -2.0940   -0.4180   -3.0420 hc        1 MOL      0.051631
     35 H16        -1.7140    3.3820   -4.0820 hc        1 MOL     -0.001262
     36 H17        -2.6490    1.9920   -4.7750 hc        1 MOL     -0.001262
     37 H18        -3.4900    3.3430   -4.0910 hc        1 MOL     -0.001262
     38 N3         -6.1000    2.4480   -0.2680 n         1 MOL     -0.408159
     39 C13        -6.8230    3.6240    0.2810 c3        1 MOL      0.031616
     40 C14        -6.0280    4.7790    0.8730 c         1 MOL      0.463652
     41 O6         -6.4340    5.9330    0.8360 o         1 MOL     -0.575789
     42 C15        -7.8980    3.2260    1.3000 c3        1 MOL     -0.232597
     43 C16        -9.1070    2.4140    0.7750 c         1 MOL      0.696611
     44 O7         -9.3350    2.3880   -0.4650 o         1 MOL     -0.726396
     45 O8         -9.7760    1.8260    1.6680 o         1 MOL     -0.726396
     46 H19        -6.2610    1.5560    0.1700 hn        1 MOL      0.419483
     47 H20        -7.3870    4.0230   -0.5630 h1        1 MOL      0.099200
     48 H21        -8.3510    4.0460    1.8740 hc        1 MOL      0.070742
     49 H22        -7.3510    2.6470    2.0380 hc        1 MOL      0.070742
     50 N4         -4.7900    4.6490    1.3560 n         1 MOL     -0.394677
     51 C17        -4.1440    3.3890    1.7610 c3        1 MOL      0.097181
     52 C18        -3.1630    3.6530    2.8900 c         1 MOL      0.554751
     53 O9         -3.1380    4.7790    3.4210 o         1 MOL     -0.602106
     54 H23        -4.2400    5.4460    1.6440 hn        1 MOL      0.289285
     55 H24        -3.6470    2.8860    0.9340 h1        1 MOL      0.002350
     56 H25        -4.8000    2.6470    2.2220 h1        1 MOL      0.002350
     57 N5         -2.3060    2.7620    3.3680 n         1 MOL     -0.511637
     58 C19        -2.1180    1.3150    3.1210 c3        1 MOL      0.308674
     59 C20        -2.0580    0.8710    1.5930 c         1 MOL      0.336573
     60 O10        -2.8240    0.0110    1.1850 o         1 MOL     -0.499460
     61 C21        -3.1600    0.5370    3.9090 c3        1 MOL     -0.367707
     62 C22        -2.8880   -0.9550    3.8550 c         1 MOL      0.746448
     63 O11        -1.8200   -1.3970    4.3260 o         1 MOL     -0.695056
     64 O12        -3.7650   -1.7570    3.3700 o         1 MOL     -0.695056
     65 H26        -1.7650    3.1230    4.1440 hn        1 MOL      0.287841
     66 H27        -1.1870    0.9560    3.5560 h1        1 MOL      0.038406
     67 H28        -4.1030    0.5510    3.3750 hc        1 MOL      0.091047
     68 H29        -3.3260    0.8260    4.9480 hc        1 MOL      0.091047
     69 N6         -1.1230    1.3670    0.7580 n         1 MOL     -0.281964
     70 C23         0.0790    2.0320    1.1740 c3        1 MOL     -0.034512
     71 C24         0.6870    3.0440    0.2180 c         1 MOL      0.570940
     72 O13         0.0150    3.5740   -0.6480 o         1 MOL     -0.515765
     73 H30        -1.1560    1.0510   -0.2020 hn        1 MOL      0.139845
     74 H31         0.8650    1.3030    1.3420 h1        1 MOL      0.051415
     75 H32        -0.0900    2.5590    2.1170 h1        1 MOL      0.051415
     76 N7          1.8560    3.5440    0.5170 n         1 MOL     -0.399341
     77 C25         2.4920    4.7070   -0.1610 c3        1 MOL     -0.007019
     78 C26         3.0030    4.4580   -1.5860 c         1 MOL      0.473348
     79 O14         3.2440    5.3700   -2.3500 o         1 MOL     -0.529987
     80 C27         3.6340    5.2000    0.6920 c3        1 MOL      0.289932
     81 C28         4.0770    6.6730    0.4000 c3        1 MOL     -0.315657
     82 C29         4.7910    7.3820    1.5120 c         1 MOL      0.792351
     83 N8          4.1470    7.5240    2.6690 n         1 MOL     -0.862393
     84 O15         5.7610    8.0200    1.3930 o         1 MOL     -0.589970
     85 H33         2.3290    3.0440    1.2550 hn        1 MOL      0.251422
     86 H34         1.8120    5.5500   -0.2640 h1        1 MOL      0.092598
     87 H35         4.4300    4.5540    0.3150 hc        1 MOL     -0.108407
     88 H36         3.3840    5.1170    1.7440 hc        1 MOL     -0.108407
     89 H37         3.2140    7.2930    0.1500 hc        1 MOL      0.083696
     90 H38         4.6740    6.6070   -0.5070 hc        1 MOL      0.083696
     91 H39         3.1450    7.4280    2.7010 hn        1 MOL      0.368571
     92 H40         4.6050    8.2240    3.2400 hn        1 MOL      0.368571
     93 N9          3.1800    3.2070   -1.9700 n         1 MOL     -0.143652
     94 C30         3.5160    2.7740   -3.2860 c3        1 MOL     -0.150867
     95 C31         4.7720    1.9490   -3.4000 c         1 MOL      0.595764
     96 O16         5.2970    1.9100   -4.5280 o         1 MOL     -0.540709
     97 C32         2.3260    1.8620   -3.8200 c3        1 MOL     -0.001560
     98 C33         1.1470    2.7490   -4.0600 c3        1 MOL     -0.215328
     99 C34         1.8290    0.7660   -2.8810 c3        1 MOL     -0.215328
    100 H41         2.9790    2.4680   -1.3150 hn        1 MOL      0.023301
    101 H42         3.6840    3.6560   -3.9030 h1        1 MOL      0.138460
    102 H43         2.6280    1.3460   -4.7300 hc        1 MOL      0.071282
    103 H44         0.6210    3.1150   -3.1810 hc        1 MOL      0.074733
    104 H45         1.3830    3.6030   -4.6930 hc        1 MOL      0.074733
    105 H46         0.4630    2.2350   -4.7370 hc        1 MOL      0.074733
    106 H47         1.6390    1.1450   -1.8860 hc        1 MOL      0.074733
    107 H48         0.8930    0.3700   -3.2730 hc        1 MOL      0.074733
    108 H49         2.5970    0.0060   -2.7370 hc        1 MOL      0.074733
    109 N10         5.1900    1.2180   -2.3650 n         1 MOL     -0.626124
    110 C35         6.5330    0.6680   -2.2410 c3        1 MOL      0.417759
    111 C36         6.7640   -0.8240   -1.7820 c         1 MOL      0.243246
    112 O17         7.7610   -1.4430   -2.2730 o         1 MOL     -0.480162
    113 C37         7.3160    1.5520   -1.2010 c3        1 MOL     -0.266239
    114 C38         7.2770    3.0450   -1.4690 c         1 MOL      0.547565
    115 N11         7.1380    3.9120   -0.5070 n         1 MOL     -0.490109
    116 O18         7.5210    3.4410   -2.5740 o         1 MOL     -0.502524
    117 H50         4.6570    1.1730   -1.5060 hn        1 MOL      0.457810
    118 H51         7.0160    0.8700   -3.2000 h1        1 MOL      0.019280
    119 H52         8.3530    1.2850   -1.0430 hc        1 MOL      0.017742
    120 H53         6.8030    1.3710   -0.2600 hc        1 MOL      0.017742
    121 H54         7.2540    3.6000    0.4400 hn        1 MOL      0.258341
    122 H55         7.2460    4.8260   -0.9400 hn        1 MOL      0.258341
    123 N12         5.9700   -1.2870   -0.8080 n         1 MOL     -0.250760
    124 C39         6.0960   -2.6030   -0.1960 c3        1 MOL      0.182780
    125 C40         4.7910   -3.2560    0.1830 c         1 MOL      0.724948
    126 O19         3.9070   -2.5430    0.6000 o         1 MOL     -0.433033
    127 C41         7.1510   -2.4870    0.9360 c3        1 MOL     -0.347447
    128 C42         6.7920   -1.3960    1.9210 ca        1 MOL      0.316584
    129 C43         5.9010   -1.6220    3.0110 ca        1 MOL     -0.421384
    130 C44         7.5380   -0.1670    1.9080 ca        1 MOL     -0.421384
    131 C45         5.8270   -0.7340    4.0850 ca        1 MOL      0.022902
    132 C46         7.3770    0.7980    2.9480 ca        1 MOL      0.022902
    133 C47         6.5800    0.5100    4.0210 ca        1 MOL      0.002256
    134 O20         6.3070    1.5250    4.8620 oh        1 MOL     -0.363330
    135 H56         5.1190   -0.7770   -0.6280 hn        1 MOL      0.110958
    136 H57         6.5250   -3.2990   -0.9050 h1        1 MOL     -0.024251
    137 H58         8.1160   -2.2460    0.4740 hc        1 MOL      0.124485
    138 H59         7.3550   -3.4160    1.4650 hc        1 MOL      0.124485
    139 H60         5.3540   -2.5620    3.0870 ha        1 MOL      0.198692
    140 H61         8.2590   -0.0520    1.1100 ha        1 MOL      0.198692
    141 H62         5.0770   -0.8440    4.8600 ha        1 MOL      0.117814
    142 H63         7.9290    1.7320    2.9530 ha        1 MOL      0.117814
    143 H64         7.0050    2.1710    4.9020 ho        1 MOL      0.280573
    144 N13         4.6990   -4.6040    0.0520 n         1 MOL     -0.671657
    145 C48         3.5870   -5.4580    0.4820 c3        1 MOL      0.015903
    146 C49         2.2610   -5.1890   -0.1770 c         1 MOL      0.154408
    147 O21         1.3560   -5.9390    0.1070 o         1 MOL     -0.432374
    148 C50         3.4220   -5.4630    2.0200 c3        1 MOL      0.459970
    149 C51         4.6450   -5.8450    2.7410 c3        1 MOL     -0.098740
    150 C52         4.6120   -5.5040    4.2370 c         1 MOL      0.716785
    151 O22         5.7740   -5.4160    4.7130 o         1 MOL     -0.733152
    152 O23         3.5640   -5.1720    4.9010 o         1 MOL     -0.733152
    153 H65         5.5020   -5.0670   -0.3420 hn        1 MOL      0.321024
    154 H66         3.9010   -6.4560    0.2040 h1        1 MOL      0.067335
    155 H67         2.6160   -6.1390    2.2930 hc        1 MOL     -0.072650
    156 H68         3.1140   -4.4690    2.3440 hc        1 MOL     -0.072650
    157 H69         5.5380   -5.4190    2.2770 hc        1 MOL     -0.076610
    158 H70         4.6180   -6.9330    2.7020 hc        1 MOL     -0.076610
    159 N14         2.1940   -4.2490   -1.1640 n         1 MOL      0.066509
    160 C53         1.0630   -3.9740   -2.0600 c3        1 MOL     -0.103431
    161 C54         1.2110   -4.6010   -3.4580 c         1 MOL      0.404320
    162 O24         0.1780   -4.6770   -4.1720 o         1 MOL     -0.508747
    163 C55         0.8240   -2.4560   -2.2060 c3        1 MOL     -0.082047
    164 C56         0.4450   -1.7280   -0.8580 c3        1 MOL      0.060189
    165 C57        -0.8860   -2.1550   -0.3160 c         1 MOL      0.867093
    166 O25        -1.8920   -2.1590   -1.0150 o         1 MOL     -0.740297
    167 O26        -1.0010   -2.6840    0.8060 o         1 MOL     -0.740297
    168 H71         3.0400   -3.7810   -1.4490 hn        1 MOL      0.031183
    169 H72         0.1800   -4.4710   -1.6500 h1        1 MOL      0.145801
    170 H73         0.0860   -2.2930   -2.9990 hc        1 MOL      0.028396
    171 H74         1.7830   -2.0360   -2.5060 hc        1 MOL      0.028396
    172 H75         0.3470   -0.6600   -1.0500 hc        1 MOL     -0.081279
    173 H76         1.2670   -1.9140   -0.1660 hc        1 MOL     -0.081279
    174 N15         2.3800   -4.9830   -3.9810 n         1 MOL     -0.285501
    175 C58         2.6990   -5.6860   -5.3010 c3        1 MOL     -0.096067
    176 H77         3.5490   -5.1980   -5.7770 h1        1 MOL      0.072485
    177 H78         2.9420   -6.7310   -5.1080 h1        1 MOL      0.072485
    178 H79         1.8330   -5.6300   -5.9610 h1        1 MOL      0.072485
    179 H80         3.2410   -4.9010   -3.4520 hn        1 MOL      0.218772
    180 Ca1        -3.7250   -2.4980    0.8540 Ca        1 MOL      1.669325
    181 O27        -3.4380   -4.8860   -0.2080 oh        1 MOL     -0.769479
    182 H81        -2.9700   -4.9610   -1.0390 ho        1 MOL      0.376099
    183 H82        -3.8830   -5.7320   -0.1130 ho        1 MOL      0.376099
    184 O28        -3.6690   -4.7420    2.6330 oh        1 MOL     -0.769479
    185 H83        -3.8910   -4.2620    3.4230 ho        1 MOL      0.376099
    186 H84        -4.4570   -5.2410    2.4100 ho        1 MOL      0.376099
@<TRIPOS>BOND
     1    1    2 1   
     2    1    4 1   
     3    1    5 1   
     4    1    6 1   
     5    2    3 2   
     6    2    7 1   
     7    7    8 1   
     8    7   15 1   
     9    8    9 1   
    10    8   11 1   
    11    8   16 1   
    12    9   10 2   
    13    9   19 1   
    14   11   12 1   
    15   11   17 1   
    16   11   18 1   
    17   12   13 1   
    18   12   14 1   
    19   19   20 1   
    20   19   27 1   
    21   20   21 1   
    22   20   23 1   
    23   20   28 1   
    24   21   22 2   
    25   21   38 1   
    26   23   24 1   
    27   23   25 1   
    28   23   29 1   
    29   24   26 1   
    30   24   30 1   
    31   24   31 1   
    32   25   32 1   
    33   25   33 1   
    34   25   34 1   
    35   26   35 1   
    36   26   36 1   
    37   26   37 1   
    38   38   39 1   
    39   38   46 1   
    40   39   40 1   
    41   39   42 1   
    42   39   47 1   
    43   40   41 2   
    44   40   50 1   
    45   42   43 1   
    46   42   48 1   
    47   42   49 1   
    48   43   44 1   
    49   43   45 1   
    50   50   51 1   
    51   50   54 1   
    52   51   52 1   
    53   51   55 1   
    54   51   56 1   
    55   52   53 2   
    56   52   57 1   
    57   57   58 1   
    58   57   65 1   
    59   58   59 1   
    60   58   61 1   
    61   58   66 1   
    62   59   60 2   
    63   59   69 1   
    64   61   62 1   
    65   61   67 1   
    66   61   68 1   
    67   62   63 1   
    68   62   64 1   
    69   69   70 1   
    70   69   73 1   
    71   70   71 1   
    72   70   74 1   
    73   70   75 1   
    74   71   72 2   
    75   71   76 1   
    76   76   77 1   
    77   76   85 1   
    78   77   78 1   
    79   77   80 1   
    80   77   86 1   
    81   78   79 2   
    82   78   93 1   
    83   80   81 1   
    84   80   87 1   
    85   80   88 1   
    86   81   82 1   
    87   81   89 1   
    88   81   90 1   
    89   82   83 1   
    90   82   84 2   
    91   83   91 1   
    92   83   92 1   
    93   93   94 1   
    94   93  100 1   
    95   94   95 1   
    96   94   97 1   
    97   94  101 1   
    98   95   96 2   
    99   95  109 1   
   100   97   98 1   
   101   97   99 1   
   102   97  102 1   
   103   98  103 1   
   104   98  104 1   
   105   98  105 1   
   106   99  106 1   
   107   99  107 1   
   108   99  108 1   
   109  109  110 1   
   110  109  117 1   
   111  110  111 1   
   112  110  113 1   
   113  110  118 1   
   114  111  112 2   
   115  111  123 1   
   116  113  114 1   
   117  113  119 1   
   118  113  120 1   
   119  114  115 1   
   120  114  116 2   
   121  115  121 1   
   122  115  122 1   
   123  123  124 1   
   124  123  135 1   
   125  124  125 1   
   126  124  127 1   
   127  124  136 1   
   128  125  126 2   
   129  125  144 1   
   130  127  128 1   
   131  127  137 1   
   132  127  138 1   
   133  128  129 ar  
   134  128  130 ar  
   135  129  131 ar  
   136  129  139 1   
   137  130  132 ar  
   138  130  140 1   
   139  131  133 ar  
   140  131  141 1   
   141  132  133 ar  
   142  132  142 1   
   143  133  134 1   
   144  134  143 1   
   145  144  145 1   
   146  144  153 1   
   147  145  146 1   
   148  145  148 1   
   149  145  154 1   
   150  146  147 2   
   151  146  159 1   
   152  148  149 1   
   153  148  155 1   
   154  148  156 1   
   155  149  150 1   
   156  149  157 1   
   157  149  158 1   
   158  150  151 1   
   159  150  152 1   
   160  159  160 1   
   161  159  168 1   
   162  160  161 1   
   163  160  163 1   
   164  160  169 1   
   165  161  162 2   
   166  161  174 1   
   167  163  164 1   
   168  163  170 1   
   169  163  171 1   
   170  164  165 1   
   171  164  172 1   
   172  164  173 1   
   173  165  166 1   
   174  165  167 1   
   175  174  175 1   
   176  174  179 1   
   177  175  176 1   
   178  175  177 1   
   179  175  178 1   
   180  181  182 1   
   181  181  183 1   
   182  184  185 1   
   183  184  186 1   
@<TRIPOS>SUBSTRUCTURE
     1 MOL         1 TEMP              0 ****  ****    0 ROOT
