@<TRIPOS>MOLECULE
MOL
  189   185     1     0     0
SMALL
resp


@<TRIPOS>ATOM
      1 C1          4.0100    3.6820   -3.5910 c3        1 MOL     -0.538469
      2 C2          4.8740    2.8860   -2.5920 c         1 MOL      0.765708
      3 O1          4.4710    2.4980   -1.5020 o         1 MOL     -0.588096
      4 H1          3.2060    3.0470   -3.9620 hc        1 MOL      0.139416
      5 H2          3.5850    4.5520   -3.0920 hc        1 MOL      0.139416
      6 H3          4.6290    4.0090   -4.4270 hc        1 MOL      0.139416
      7 N1          6.0640    2.4230   -3.0160 n         1 MOL     -0.699231
      8 C3          6.7620    1.2620   -2.4670 c3        1 MOL      0.389275
      9 C4          5.9190    0.0480   -1.9820 c         1 MOL      0.193514
     10 O2          5.6150   -0.1050   -0.7880 o         1 MOL     -0.463008
     11 C5          7.9170    1.6850   -1.4570 c3        1 MOL     -0.162566
     12 C6          7.5400    2.7510   -0.4230 c         1 MOL      0.788724
     13 O3          6.8860    2.4020    0.5830 o         1 MOL     -0.742041
     14 O4          7.9340    3.9150   -0.5520 o         1 MOL     -0.742041
     15 H4          6.2810    2.7310   -3.9540 hn        1 MOL      0.316759
     16 H5          7.3510    0.9230   -3.3120 h1        1 MOL     -0.004636
     17 H6          8.6970    2.1070   -2.0990 hc        1 MOL      0.007035
     18 H7          8.3180    0.7980   -0.9780 hc        1 MOL      0.007035
     19 N2          5.4630   -0.7070   -2.9970 n         1 MOL     -0.398030
     20 C7          4.5420   -1.8710   -2.9540 c3        1 MOL      0.213215
     21 C8          4.9690   -3.0870   -2.2150 c         1 MOL      0.255363
     22 O5          5.1450   -4.1530   -2.8520 o         1 MOL     -0.554053
     23 C9          3.0790   -1.5440   -2.6360 c3        1 MOL      0.257702
     24 C10         2.1130   -2.7600   -2.8470 c3        1 MOL      0.048776
     25 C11         2.4980   -0.3600   -3.3590 c3        1 MOL     -0.274080
     26 C12         2.0010   -3.2120   -4.3350 c3        1 MOL     -0.311427
     27 H8          5.6590   -0.3440   -3.9170 hn        1 MOL      0.247851
     28 H9          4.6350   -2.0590   -4.0220 h1        1 MOL      0.012293
     29 H10         2.9430   -1.3900   -1.5660 hc        1 MOL     -0.107687
     30 H11         1.1410   -2.4460   -2.4690 hc        1 MOL      0.016258
     31 H12         2.4670   -3.6330   -2.2850 hc        1 MOL      0.016258
     32 H13         2.8590    0.6030   -2.9880 hc        1 MOL      0.049054
     33 H14         2.8210   -0.3840   -4.3970 hc        1 MOL      0.049054
     34 H15         1.4150   -0.3370   -3.4080 hc        1 MOL      0.049054
     35 H16         3.0260   -3.4460   -4.6590 hc        1 MOL      0.059332
     36 H17         1.3830   -4.1080   -4.3530 hc        1 MOL      0.059332
     37 H18         1.6130   -2.3470   -4.8690 hc        1 MOL      0.059332
     38 N3          5.2880   -2.9430   -0.9330 n         1 MOL     -0.103397
     39 C13         5.9990   -3.9360   -0.1170 c3        1 MOL      0.251595
     40 C14         5.2700   -5.2350    0.2250 c         1 MOL      0.446525
     41 O6          5.9260   -6.2910    0.0490 o         1 MOL     -0.562643
     42 C15         6.7300   -3.2120    1.0300 c3        1 MOL     -0.441531
     43 C16         7.8560   -2.2410    0.4750 c         1 MOL      0.746694
     44 O7          8.2640   -2.3430   -0.7200 o         1 MOL     -0.704711
     45 O8          8.3200   -1.4140    1.3010 o         1 MOL     -0.704711
     46 H19         5.2200   -2.0050   -0.5770 hn        1 MOL      0.378808
     47 H20         6.7110   -4.3070   -0.8600 h1        1 MOL      0.011934
     48 H21         7.1340   -3.9700    1.7100 hc        1 MOL      0.119278
     49 H22         6.0340   -2.5680    1.5710 hc        1 MOL      0.119278
     50 N4          4.0380   -5.2760    0.7940 n         1 MOL     -0.485689
     51 C17         3.2980   -4.1360    1.3410 c3        1 MOL      0.048377
     52 C18         3.8660   -3.5130    2.6690 c         1 MOL      0.448947
     53 O9          4.8420   -3.9820    3.2100 o         1 MOL     -0.518576
     54 H23         3.5810   -6.1750    0.8390 hn        1 MOL      0.292052
     55 H24         2.3450   -4.6120    1.5980 h1        1 MOL      0.070136
     56 H25         3.1150   -3.3320    0.6310 h1        1 MOL      0.070136
     57 N5          3.2960   -2.4490    3.2400 n         1 MOL     -0.395963
     58 C19         2.0660   -1.6590    2.8300 c3        1 MOL      0.014525
     59 C20         2.1750   -1.0620    1.4510 c         1 MOL      0.111205
     60 O10         3.2360   -0.7550    0.9970 o         1 MOL     -0.772898
     61 C21         1.8120   -0.5950    3.9590 c3        1 MOL     -0.266795
     62 C22         2.9640    0.2650    4.2080 c         1 MOL      0.909466
     63 O11         3.5210    0.1450    5.3190 o         1 MOL     -0.738790
     64 O12         3.3180    1.1460    3.4070 o         1 MOL     -0.738790
     65 H26         3.7860   -2.0480    4.0370 hn        1 MOL      0.286181
     66 H27         1.1810   -2.2950    2.8860 h1        1 MOL      0.069993
     67 H28         1.6800   -1.1110    4.9090 hc        1 MOL      0.062296
     68 H29         0.8710   -0.1150    3.6700 hc        1 MOL      0.062296
     69 N6          1.0930   -0.8520    0.7400 n         1 MOL      0.150878
     70 C23        -0.3220   -1.1680    1.0670 c3        1 MOL     -0.246193
     71 C24        -0.7340   -2.6110    0.8400 c         1 MOL      0.463608
     72 O13        -0.0190   -3.4310    0.2290 o         1 MOL     -0.547279
     73 H30         1.3030   -0.4140   -0.1480 hn        1 MOL      0.237188
     74 H31        -0.9230   -0.5890    0.3660 h1        1 MOL      0.143114
     75 H32        -0.6600   -0.9290    2.0750 h1        1 MOL      0.143114
     76 N7         -1.9930   -3.0040    1.1230 n         1 MOL     -0.350700
     77 C25        -2.6490   -4.2690    0.5720 c3        1 MOL      0.074701
     78 C26        -3.2690   -4.1880   -0.8270 c         1 MOL      0.308895
     79 O14        -3.4880   -5.2300   -1.4710 o         1 MOL     -0.535791
     80 C27        -3.5990   -4.9290    1.5690 c3        1 MOL     -0.073492
     81 C28        -4.6810   -4.0860    2.2570 c3        1 MOL     -0.174367
     82 C29        -5.7240   -3.8370    1.2280 c         1 MOL      0.511617
     83 N8         -6.6130   -4.7470    0.9310 n         1 MOL     -0.585310
     84 O15        -5.7870   -2.7550    0.6680 o         1 MOL     -0.547895
     85 H33        -2.5330   -2.3670    1.6890 hn        1 MOL      0.223207
     86 H34        -1.8700   -4.9970    0.3670 h1        1 MOL      0.127973
     87 H35        -2.8700   -5.2480    2.3150 hc        1 MOL      0.034224
     88 H36        -4.0750   -5.7350    1.0260 hc        1 MOL      0.034224
     89 H37        -4.2800   -3.1410    2.6430 hc        1 MOL      0.082179
     90 H38        -5.1710   -4.6810    3.0260 hc        1 MOL      0.082179
     91 H39        -6.4690   -5.5860    1.4650 hn        1 MOL      0.307271
     92 H40        -7.4940   -4.5070    0.4820 hn        1 MOL      0.307271
     93 N9         -3.5390   -3.0170   -1.3380 n         1 MOL      0.014518
     94 C30        -4.0270   -2.6580   -2.6380 c3        1 MOL     -0.060995
     95 C31        -5.3590   -1.8700   -2.7760 c         1 MOL      0.282361
     96 O16        -5.6840   -1.5260   -3.9120 o         1 MOL     -0.514376
     97 C32        -2.8270   -2.0110   -3.4910 c3        1 MOL      0.264072
     98 C33        -1.5710   -2.8140   -3.4240 c3        1 MOL     -0.161593
     99 C34        -2.4820   -0.5390   -3.0540 c3        1 MOL     -0.161593
    100 H41        -3.3110   -2.2140   -0.7710 hn        1 MOL      0.133939
    101 H42        -4.1160   -3.6110   -3.1440 h1        1 MOL      0.085357
    102 H43        -3.1280   -1.9800   -4.5330 hc        1 MOL     -0.034471
    103 H44        -0.7310   -2.4790   -4.0450 hc        1 MOL      0.028202
    104 H45        -1.2570   -2.8410   -2.3790 hc        1 MOL      0.028202
    105 H46        -1.8820   -3.8300   -3.6510 hc        1 MOL      0.028202
    106 H47        -1.7890   -0.1020   -3.7660 hc        1 MOL      0.028202
    107 H48        -3.2880    0.1850   -3.1470 hc        1 MOL      0.028202
    108 H49        -2.0860   -0.5620   -2.0370 hc        1 MOL      0.028202
    109 N10        -6.1980   -1.7290   -1.7400 n         1 MOL     -0.109890
    110 C35        -7.3640   -0.8180   -1.7510 c3        1 MOL     -0.026900
    111 C36        -7.2120    0.6570   -1.4020 c         1 MOL      0.546176
    112 O17        -8.0830    1.4820   -1.6430 o         1 MOL     -0.555511
    113 C37        -8.4600   -1.4660   -0.9200 c3        1 MOL     -0.111451
    114 C38        -8.8780   -2.8390   -1.4050 c         1 MOL      0.623801
    115 N11        -9.3270   -2.9790   -2.5870 n         1 MOL     -0.743099
    116 O18        -8.9080   -3.7840   -0.6680 o         1 MOL     -0.564317
    117 H50        -5.8730   -2.1500   -0.8880 hn        1 MOL      0.155813
    118 H51        -7.7860   -0.8410   -2.7560 h1        1 MOL      0.050372
    119 H52        -9.3790   -0.8730   -0.9070 hc        1 MOL      0.051439
    120 H53        -8.1670   -1.5680    0.1270 hc        1 MOL      0.051439
    121 H54        -9.3320   -2.2600   -3.2940 hn        1 MOL      0.357808
    122 H55        -9.5440   -3.9280   -2.8520 hn        1 MOL      0.357808
    123 N12        -6.0680    1.0860   -0.8340 n         1 MOL     -0.416702
    124 C39        -6.0450    2.4320   -0.1530 c3        1 MOL      0.290000
    125 C40        -4.6390    3.1300   -0.0240 c         1 MOL      0.200364
    126 O19        -3.6240    2.4650   -0.0540 o         1 MOL     -0.389611
    127 C41        -6.7710    2.3090    1.2060 c3        1 MOL     -0.292257
    128 C42        -6.2820    1.1630    2.0420 ca        1 MOL      0.197218
    129 C43        -5.1270    1.2860    2.9020 ca        1 MOL     -0.257773
    130 C44        -7.1580    0.0130    2.1970 ca        1 MOL     -0.257773
    131 C45        -4.8040    0.3200    3.8150 ca        1 MOL     -0.140431
    132 C46        -6.7920   -0.9860    3.1320 ca        1 MOL     -0.140431
    133 C47        -5.6810   -0.8160    3.9870 ca        1 MOL      0.238809
    134 O20        -5.5010   -1.6770    5.0710 oh        1 MOL     -0.606614
    135 H56        -5.2260    0.5280   -0.7590 hn        1 MOL      0.227908
    136 H57        -6.6870    3.0600   -0.7810 h1        1 MOL      0.025516
    137 H58        -7.8430    2.1890    1.0480 hc        1 MOL      0.081544
    138 H59        -6.6180    3.2240    1.7820 hc        1 MOL      0.081544
    139 H60        -4.5320    2.1880    2.9150 ha        1 MOL      0.152168
    140 H61        -8.0660   -0.0470    1.6210 ha        1 MOL      0.152168
    141 H62        -3.8860    0.4660    4.3620 ha        1 MOL      0.131692
    142 H63        -7.4280   -1.8180    3.4230 ha        1 MOL      0.131692
    143 H64        -4.7790   -1.4440    5.6590 ho        1 MOL      0.443774
    144 N13        -4.6460    4.4180    0.2820 n         1 MOL     -0.410741
    145 C48        -3.4430    5.1030    0.8070 c3        1 MOL      0.048004
    146 C49        -2.2890    5.2640   -0.1330 c         1 MOL      0.208840
    147 O21        -1.6020    6.2830   -0.1180 o         1 MOL     -0.506150
    148 C50        -2.9380    4.6050    2.2200 c3        1 MOL      0.184460
    149 C51        -2.2880    5.6680    3.1290 c3        1 MOL     -0.400450
    150 C52        -1.5560    4.9870    4.3740 c         1 MOL      0.703246
    151 O22        -1.7590    3.8080    4.7100 o         1 MOL     -0.704528
    152 O23        -0.6220    5.6600    4.9230 o         1 MOL     -0.704528
    153 H65        -5.5320    4.8740    0.2740 hn        1 MOL      0.283865
    154 H66        -3.8170    6.1180    0.9750 h1        1 MOL      0.060258
    155 H67        -2.2330    3.8010    1.9810 hc        1 MOL      0.022222
    156 H68        -3.8080    4.1510    2.7050 hc        1 MOL      0.022222
    157 H69        -3.0320    6.3590    3.5210 hc        1 MOL      0.068943
    158 H70        -1.5760    6.2070    2.4910 hc        1 MOL      0.068943
    159 N14        -1.8970    4.3300   -0.9630 n         1 MOL      0.013315
    160 C53        -0.7750    4.4260   -1.9050 c3        1 MOL     -0.087541
    161 C54        -1.0620    5.3770   -3.1710 c         1 MOL      0.447557
    162 O24        -0.1540    6.0000   -3.7560 o         1 MOL     -0.516642
    163 C55        -0.3020    3.0060   -2.3040 c3        1 MOL     -0.182550
    164 C56        -0.0320    2.0880   -1.0430 c3        1 MOL      0.811621
    165 C57         1.0900    2.4670   -0.0280 c         1 MOL      0.188568
    166 O25         0.9450    3.3960    0.7910 o         1 MOL     -0.493674
    167 O26         2.1240    1.8020    0.0190 o         1 MOL     -0.493674
    168 H71        -2.4290    3.4750   -1.0440 hn        1 MOL      0.186026
    169 H72         0.0270    4.8800   -1.3070 h1        1 MOL      0.149737
    170 H73         0.5950    3.0810   -2.9140 hc        1 MOL     -0.005469
    171 H74        -1.1500    2.5900   -2.8540 hc        1 MOL     -0.005469
    172 H75         0.2870    1.0830   -1.3080 hc        1 MOL     -0.288187
    173 H76        -0.9380    2.0010   -0.4410 hc        1 MOL     -0.288187
    174 N15        -2.3700    5.6060   -3.4730 n         1 MOL     -0.210345
    175 C58        -2.9120    6.6220   -4.3620 c3        1 MOL     -0.260116
    176 H77        -3.9050    6.3200   -4.6950 h1        1 MOL      0.102031
    177 H78        -2.9800    7.5710   -3.8310 h1        1 MOL      0.102031
    178 H79        -2.2580    6.7350   -5.2260 h1        1 MOL      0.102031
    179 H80        -3.0250    5.0170   -2.9760 hn        1 MOL      0.186588
    180 Ca1         4.4390    1.5990    1.0050 Ca        1 MOL      1.805377
    181 O27         5.9640   -0.0130    2.3190 oh        1 MOL     -0.794027
    182 H81         5.8800   -0.3850    3.1950 ho        1 MOL      0.378678
    183 H82         6.6920   -0.4820    1.9260 ho        1 MOL      0.378678
    184 O28         5.8630    2.5910    3.4510 oh        1 MOL     -0.794027
    185 H83         6.6420    2.0300    3.4460 ho        1 MOL      0.378678
    186 H84         5.4480    2.4040    4.2920 ho        1 MOL      0.378678
    187 O29         3.9910    4.3110    1.0590 oh        1 MOL     -0.794027
    188 H85         4.2380    4.9630    0.4020 ho        1 MOL      0.378678
    189 H86         3.1950    4.6570    1.4550 ho        1 MOL      0.378678
@<TRIPOS>BOND
     1    1    2 1   
     2    1    4 1   
     3    1    5 1   
     4    1    6 1   
     5    2    3 2   
     6    2    7 1   
     7    7    8 1   
     8    7   15 1   
     9    8    9 1   
    10    8   11 1   
    11    8   16 1   
    12    9   10 2   
    13    9   19 1   
    14   11   12 1   
    15   11   17 1   
    16   11   18 1   
    17   12   13 1   
    18   12   14 1   
    19   19   20 1   
    20   19   27 1   
    21   20   21 1   
    22   20   23 1   
    23   20   28 1   
    24   21   22 2   
    25   21   38 1   
    26   23   24 1   
    27   23   25 1   
    28   23   29 1   
    29   24   26 1   
    30   24   30 1   
    31   24   31 1   
    32   25   32 1   
    33   25   33 1   
    34   25   34 1   
    35   26   35 1   
    36   26   36 1   
    37   26   37 1   
    38   38   39 1   
    39   38   46 1   
    40   39   40 1   
    41   39   42 1   
    42   39   47 1   
    43   40   41 2   
    44   40   50 1   
    45   42   43 1   
    46   42   48 1   
    47   42   49 1   
    48   43   44 1   
    49   43   45 1   
    50   50   51 1   
    51   50   54 1   
    52   51   52 1   
    53   51   55 1   
    54   51   56 1   
    55   52   53 2   
    56   52   57 1   
    57   57   58 1   
    58   57   65 1   
    59   58   59 1   
    60   58   61 1   
    61   58   66 1   
    62   59   60 2   
    63   59   69 1   
    64   61   62 1   
    65   61   67 1   
    66   61   68 1   
    67   62   63 1   
    68   62   64 1   
    69   69   70 1   
    70   69   73 1   
    71   70   71 1   
    72   70   74 1   
    73   70   75 1   
    74   71   72 2   
    75   71   76 1   
    76   76   77 1   
    77   76   85 1   
    78   77   78 1   
    79   77   80 1   
    80   77   86 1   
    81   78   79 2   
    82   78   93 1   
    83   80   81 1   
    84   80   87 1   
    85   80   88 1   
    86   81   82 1   
    87   81   89 1   
    88   81   90 1   
    89   82   83 1   
    90   82   84 2   
    91   83   91 1   
    92   83   92 1   
    93   93   94 1   
    94   93  100 1   
    95   94   95 1   
    96   94   97 1   
    97   94  101 1   
    98   95   96 2   
    99   95  109 1   
   100   97   98 1   
   101   97   99 1   
   102   97  102 1   
   103   98  103 1   
   104   98  104 1   
   105   98  105 1   
   106   99  106 1   
   107   99  107 1   
   108   99  108 1   
   109  109  110 1   
   110  109  117 1   
   111  110  111 1   
   112  110  113 1   
   113  110  118 1   
   114  111  112 2   
   115  111  123 1   
   116  113  114 1   
   117  113  119 1   
   118  113  120 1   
   119  114  115 1   
   120  114  116 2   
   121  115  121 1   
   122  115  122 1   
   123  123  124 1   
   124  123  135 1   
   125  124  125 1   
   126  124  127 1   
   127  124  136 1   
   128  125  126 2   
   129  125  144 1   
   130  127  128 1   
   131  127  137 1   
   132  127  138 1   
   133  128  129 ar  
   134  128  130 ar  
   135  129  131 ar  
   136  129  139 1   
   137  130  132 ar  
   138  130  140 1   
   139  131  133 ar  
   140  131  141 1   
   141  132  133 ar  
   142  132  142 1   
   143  133  134 1   
   144  134  143 1   
   145  144  145 1   
   146  144  153 1   
   147  145  146 1   
   148  145  148 1   
   149  145  154 1   
   150  146  147 2   
   151  146  159 1   
   152  148  149 1   
   153  148  155 1   
   154  148  156 1   
   155  149  150 1   
   156  149  157 1   
   157  149  158 1   
   158  150  151 1   
   159  150  152 1   
   160  159  160 1   
   161  159  168 1   
   162  160  161 1   
   163  160  163 1   
   164  160  169 1   
   165  161  162 2   
   166  161  174 1   
   167  163  164 1   
   168  163  170 1   
   169  163  171 1   
   170  164  165 1   
   171  164  172 1   
   172  164  173 1   
   173  165  166 1   
   174  165  167 1   
   175  174  175 1   
   176  174  179 1   
   177  175  176 1   
   178  175  177 1   
   179  175  178 1   
   180  181  182 1   
   181  181  183 1   
   182  184  185 1   
   183  184  186 1   
   184  187  188 1   
   185  187  189 1   
@<TRIPOS>SUBSTRUCTURE
     1 MOL         1 TEMP              0 ****  ****    0 ROOT
