@<TRIPOS>MOLECULE
MOL
  181   177     1     0     0
SMALL
resp


@<TRIPOS>ATOM
      1 C1          7.0550   -4.3790    5.4330 c3        1 MOL     -0.300975
      2 C2          6.2890   -3.4740    4.5100 c         1 MOL      0.550586
      3 O1          5.3310   -2.7990    4.8880 o         1 MOL     -0.546811
      4 H1          7.3050   -3.8390    6.3460 hc        1 MOL      0.063565
      5 H2          6.4450   -5.2480    5.6800 hc        1 MOL      0.063565
      6 H3          7.9720   -4.7070    4.9430 hc        1 MOL      0.063565
      7 N1          6.7130   -3.3450    3.2720 n         1 MOL     -0.215266
      8 C3          7.7160   -4.1180    2.4700 c3        1 MOL      0.073848
      9 C4          6.8190   -4.9490    1.4780 c         1 MOL      0.541030
     10 O2          5.7280   -5.2520    1.8440 o         1 MOL     -0.476742
     11 C5          8.7590   -3.1510    1.8860 c3        1 MOL     -0.313156
     12 C6          8.2110   -2.1010    1.0140 c         1 MOL      0.560052
     13 O3          7.7080   -2.3830   -0.0970 o         1 MOL     -0.639191
     14 O4          8.3020   -0.9040    1.3770 o         1 MOL     -0.639191
     15 H4          6.0510   -2.8360    2.7050 hn        1 MOL      0.182175
     16 H5          8.2040   -4.8610    3.0890 h1        1 MOL      0.045238
     17 H6          9.4590   -3.6870    1.2390 hc        1 MOL      0.076875
     18 H7          9.2920   -2.6060    2.6660 hc        1 MOL      0.076875
     19 N2          7.2200   -5.4020    0.2600 n         1 MOL     -0.667997
     20 C7          6.3490   -6.0140   -0.8150 c3        1 MOL      0.601752
     21 C8          5.1400   -5.1450   -1.3290 c         1 MOL      0.234760
     22 O5          4.2760   -5.6810   -1.9980 o         1 MOL     -0.548689
     23 C9          5.9590   -7.4880   -0.5780 c3        1 MOL     -0.589843
     24 H8          8.2140   -5.3840    0.0780 hn        1 MOL      0.291249
     25 H9          7.0120   -6.0650   -1.6750 h1        1 MOL     -0.040370
     26 H10         6.5010   -7.9450    0.2450 hc        1 MOL      0.142848
     27 H11         4.8980   -7.5580   -0.3470 hc        1 MOL      0.142848
     28 H12         6.1570   -7.9370   -1.5470 hc        1 MOL      0.142848
     29 N3          5.1740   -3.9030   -0.9960 n         1 MOL      0.131751
     30 C10         4.0900   -2.8900   -1.3260 c3        1 MOL     -0.014690
     31 C11         4.5830   -1.8470   -2.3750 c         1 MOL      0.317478
     32 O6          5.8180   -1.5640   -2.5190 o         1 MOL     -0.545136
     33 C12         3.5690   -2.1830   -0.0280 c3        1 MOL     -0.002213
     34 C13         4.6520   -1.6770    0.9790 c         1 MOL      0.465785
     35 O7          5.4010   -0.7800    0.5320 o         1 MOL     -0.537417
     36 O8          4.5720   -1.9220    2.2210 o         1 MOL     -0.537417
     37 H13         6.0050   -3.5670   -0.5440 hn        1 MOL     -0.129310
     38 H14         3.2120   -3.3980   -1.7310 h1        1 MOL      0.067850
     39 H15         2.9090   -2.9000    0.4550 hc        1 MOL      0.029405
     40 H16         2.9370   -1.3540   -0.3440 hc        1 MOL      0.029405
     41 N4          3.5690   -1.1760   -2.8590 n         1 MOL     -0.192479
     42 C14         3.7060    0.0280   -3.7170 c3        1 MOL     -0.242799
     43 C15         4.2880    1.1780   -2.8500 c         1 MOL      0.560366
     44 O9          4.7290    1.0070   -1.7060 o         1 MOL     -0.536615
     45 H17         2.6170   -1.4820   -2.7610 hn        1 MOL      0.272304
     46 H18         2.7240    0.2820   -4.0930 h1        1 MOL      0.135058
     47 H19         4.3350   -0.2210   -4.5720 h1        1 MOL      0.135058
     48 N5          4.2020    2.4230   -3.3820 n         1 MOL     -0.658741
     49 C16         4.4740    3.6900   -2.6260 c3        1 MOL      0.302520
     50 C17         3.2640    4.0680   -1.6840 c         1 MOL      0.765686
     51 O10         2.2020    4.1820   -2.2280 o         1 MOL     -0.570863
     52 C18         4.8000    4.8350   -3.6870 c3        1 MOL     -0.486719
     53 C19         5.3730    6.0270   -2.9000 c         1 MOL      0.679446
     54 N6          5.1540    7.1940   -3.4610 n         1 MOL     -0.787489
     55 O11         5.8330    5.9440   -1.7850 o         1 MOL     -0.556815
     56 H20         3.7640    2.4180   -4.2920 hn        1 MOL      0.334287
     57 H21         5.3260    3.4470   -1.9990 h1        1 MOL     -0.034647
     58 H22         3.9200    5.0790   -4.2850 hc        1 MOL      0.133773
     59 H23         5.6470    4.4550   -4.2700 hc        1 MOL      0.133773
     60 H24         4.6640    7.1100   -4.3460 hn        1 MOL      0.376904
     61 H25         5.4060    8.0690   -3.0240 hn        1 MOL      0.376904
     62 N7          3.4990    4.3460   -0.4690 n         1 MOL     -0.621714
     63 C20         2.4210    4.7270    0.5160 c3        1 MOL      0.302689
     64 C21         1.8830    6.1550    0.5530 c         1 MOL      0.297107
     65 O12         2.3430    7.0760   -0.1330 o         1 MOL     -0.490357
     66 H26         4.4090    4.3490   -0.0500 hn        1 MOL      0.339660
     67 H27         2.7830    4.3470    1.4680 h1        1 MOL      0.005557
     68 H28         1.5950    4.0470    0.3080 h1        1 MOL      0.005557
     69 N8          0.6780    6.3180    1.0780 n         1 MOL     -0.268711
     70 C22         0.0310    5.4720    2.0530 c3        1 MOL     -0.040332
     71 C23        -0.8010    4.2380    1.4630 c         1 MOL      0.488386
     72 O13        -1.3720    4.4100    0.3890 o         1 MOL     -0.518859
     73 C24        -0.8500    6.2990    3.0530 c3        1 MOL      0.452827
     74 C25        -0.1070    7.0170    4.1400 c3        1 MOL     -0.299309
     75 O14        -1.5260    7.2860    2.3400 oh        1 MOL     -0.623489
     76 H29         0.2530    7.2420    1.0550 hn        1 MOL      0.281616
     77 H30         0.7910    5.0010    2.6710 h1        1 MOL      0.017469
     78 H31        -1.5590    5.6050    3.5020 h1        1 MOL     -0.006226
     79 H32        -2.2780    7.4200    2.9140 ho        1 MOL      0.406212
     80 H33         0.5130    6.3080    4.6880 hc        1 MOL      0.054964
     81 H34         0.6120    7.6720    3.6470 hc        1 MOL      0.054964
     82 H35        -0.8260    7.5380    4.7690 hc        1 MOL      0.054964
     83 N9         -0.8990    3.1710    2.2270 n         1 MOL     -0.426994
     84 C26        -1.4990    1.9260    1.8750 c3        1 MOL     -0.070382
     85 C27        -2.5830    1.5620    2.9180 c         1 MOL      0.761711
     86 O15        -2.2200    1.3350    4.0590 o         1 MOL     -0.615946
     87 C28        -0.4170    0.8480    1.8180 c3        1 MOL      0.119975
     88 C29         0.9270    1.2420    1.1350 c3        1 MOL     -0.243322
     89 C30        -1.0270   -0.4610    1.2240 c3        1 MOL      0.099484
     90 C31         0.7910    1.4590   -0.3970 c3        1 MOL     -0.450007
     91 H36        -0.3940    3.1890    3.1030 hn        1 MOL      0.257777
     92 H37        -1.9600    1.8570    0.8920 h1        1 MOL      0.168216
     93 H38        -0.0970    0.4860    2.7980 hc        1 MOL     -0.003382
     94 H39         1.6510    0.4370    1.2610 hc        1 MOL      0.089120
     95 H40         1.4490    2.0970    1.5700 hc        1 MOL      0.089120
     96 H41        -0.2330   -1.2190    1.2340 hc        1 MOL     -0.014567
     97 H42        -1.7990   -0.7850    1.9130 hc        1 MOL     -0.014567
     98 H43        -1.3220   -0.2870    0.1930 hc        1 MOL     -0.014567
     99 H44         1.7990    1.5920   -0.7800 hc        1 MOL      0.145594
    100 H45         0.4790    0.6010   -1.0050 hc        1 MOL      0.145594
    101 H46         0.1580    2.3040   -0.6740 hc        1 MOL      0.145594
    102 N10        -3.8590    1.3910    2.6140 n         1 MOL     -0.720742
    103 C32        -4.5160    1.8570    1.3590 c3        1 MOL      0.078426
    104 C33        -5.7680    0.9380    1.2380 c         1 MOL      0.660416
    105 O16        -6.0260    0.0650    2.0050 o         1 MOL     -0.527695
    106 C34        -4.8630    3.3970    1.4490 c3        1 MOL     -0.188778
    107 C35        -5.6950    3.6650    2.7470 c         1 MOL      0.674823
    108 O17        -5.1620    4.2410    3.7060 o         1 MOL     -0.703981
    109 O18        -6.8710    3.2300    2.7040 o         1 MOL     -0.703981
    110 H47        -4.5410    1.4420    3.3570 hn        1 MOL      0.416336
    111 H48        -3.9030    1.7260    0.4690 h1        1 MOL      0.041505
    112 H49        -5.4550    3.6190    0.5610 hc        1 MOL      0.018328
    113 H50        -3.9660    4.0110    1.5200 hc        1 MOL      0.018328
    114 N11        -6.6660    1.2130    0.2740 n         1 MOL     -0.600602
    115 C36        -7.8440    0.3980   -0.1560 c3        1 MOL      0.411313
    116 C37        -7.7930   -0.2040   -1.5510 c         1 MOL      0.050797
    117 O19        -7.4120    0.5890   -2.4320 o         1 MOL     -0.485818
    118 C38        -9.1270    1.2960   -0.0340 c3        1 MOL     -0.242789
    119 C39       -10.3780    0.7220   -0.6980 ca        1 MOL      0.078346
    120 C40       -10.8150    1.1910   -1.9360 ca        1 MOL     -0.138085
    121 C41       -11.1620   -0.1980   -0.0050 ca        1 MOL     -0.138085
    122 C42       -11.9580    0.6700   -2.4710 ca        1 MOL     -0.109049
    123 C43       -12.2160   -0.7870   -0.6460 ca        1 MOL     -0.109049
    124 C44       -12.6380   -0.3640   -1.8950 ca        1 MOL     -0.156233
    125 H51        -6.5050    1.9960   -0.3450 hn        1 MOL      0.306714
    126 H52        -8.0040   -0.3750    0.5900 h1        1 MOL      0.035778
    127 H53        -8.8430    2.2070   -0.5540 hc        1 MOL      0.093879
    128 H54        -9.3330    1.5750    1.0060 hc        1 MOL      0.093879
    129 H55       -10.2430    1.9180   -2.5040 ha        1 MOL      0.124613
    130 H56       -10.8460   -0.5290    0.9690 ha        1 MOL      0.124613
    131 H57       -12.3080    1.0140   -3.4380 ha        1 MOL      0.089844
    132 H58       -12.6510   -1.6470   -0.1620 ha        1 MOL      0.089844
    133 H59       -13.4820   -0.7340   -2.4410 ha        1 MOL      0.099268
    134 N12        -8.2320   -1.4230   -1.8600 n         1 MOL      0.255398
    135 C45        -8.6910   -2.4360   -0.9600 c3        1 MOL      0.324282
    136 C46        -7.6550   -2.9430    0.0920 c         1 MOL      0.258788
    137 O20        -7.9120   -2.8950    1.2880 o         1 MOL     -0.518873
    138 C47        -9.3200   -3.6560   -1.7310 c3        1 MOL     -0.205539
    139 C48        -9.7420   -2.8120   -3.0560 c3        1 MOL      0.097126
    140 C49        -8.4920   -1.9790   -3.1820 c3        1 MOL     -0.277634
    141 H60        -9.4030   -1.8930   -0.3390 h1        1 MOL     -0.106663
    142 H61        -8.5110   -4.3480   -1.9310 hc        1 MOL      0.062291
    143 H62       -10.2220   -4.1160   -1.3130 hc        1 MOL      0.062291
    144 H63        -9.9730   -3.4780   -3.8850 hc        1 MOL     -0.013294
    145 H64       -10.5960   -2.1490   -2.8830 hc        1 MOL     -0.013294
    146 H65        -7.6020   -2.5960   -3.3650 h1        1 MOL      0.101661
    147 H66        -8.7530   -1.1720   -3.8630 h1        1 MOL      0.101661
    148 N13        -6.4210   -3.2530   -0.3700 n         1 MOL     -0.231664
    149 C50        -5.4270   -3.9170    0.3850 c3        1 MOL      0.183782
    150 C51        -5.8280   -5.3860    0.4590 c         1 MOL      0.347378
    151 O21        -5.7620   -6.2180   -0.4940 o         1 MOL     -0.577153
    152 C52        -4.0350   -3.7070   -0.2570 c3        1 MOL      0.031537
    153 C53        -3.5980   -2.3220   -0.7920 c3        1 MOL     -0.022413
    154 C54        -3.8240   -2.2110   -2.3230 c         1 MOL      0.725435
    155 O22        -2.9520   -1.6540   -2.9970 o         1 MOL     -0.688341
    156 O23        -4.8570   -2.6350   -2.9240 o         1 MOL     -0.688341
    157 H67        -6.1520   -3.0750   -1.3290 hn        1 MOL      0.127839
    158 H68        -5.4000   -3.3650    1.3300 h1        1 MOL      0.078525
    159 H69        -3.9380   -4.4720   -1.0290 hc        1 MOL     -0.016875
    160 H70        -3.3790   -3.9080    0.5950 hc        1 MOL     -0.016875
    161 H71        -2.5240   -2.3710   -0.6430 hc        1 MOL     -0.053182
    162 H72        -3.9900   -1.4710   -0.2390 hc        1 MOL     -0.053182
    163 N14        -6.2540   -5.9300    1.5480 n         1 MOL     -0.257649
    164 C55        -6.4150   -5.2900    2.8910 c3        1 MOL     -0.168926
    165 H73        -5.6800   -4.4930    3.0040 h1        1 MOL      0.078373
    166 H74        -7.4180   -4.8730    2.9780 h1        1 MOL      0.078373
    167 H75        -6.2620   -6.0370    3.6710 h1        1 MOL      0.078373
    168 H76        -6.4110   -6.9210    1.5560 hn        1 MOL      0.254839
    169 Ca1         7.2300    0.0670   -1.0260 Ca        1 MOL      1.748996
    170 O24         9.8540    0.6060   -1.1480 oh        1 MOL     -0.852810
    171 H77        10.4690    0.5540   -1.8870 ho        1 MOL      0.411344
    172 H78        10.3330    1.0830   -0.4730 ho        1 MOL      0.411344
    173 O25         8.3010   -0.4450   -3.5000 oh        1 MOL     -0.852810
    174 H79         8.9430   -0.0220   -4.0830 ho        1 MOL      0.411344
    175 H80         7.8090   -1.0220   -4.0720 ho        1 MOL      0.411344
    176 O26         7.0050    1.8760    0.9220 oh        1 MOL     -0.852810
    177 H81         6.8200    2.7800    0.6570 ho        1 MOL      0.411344
    178 H82         7.7500    1.9460    1.5120 ho        1 MOL      0.411344
    179 O27         7.5930    2.5980   -2.3290 oh        1 MOL     -0.852810
    180 H83         7.3760    2.7970   -3.2440 ho        1 MOL      0.411344
    181 H84         8.2590    3.2440   -2.1070 ho        1 MOL      0.411344
@<TRIPOS>BOND
     1    1    2 1   
     2    1    4 1   
     3    1    5 1   
     4    1    6 1   
     5    2    3 2   
     6    2    7 1   
     7    7    8 1   
     8    7   15 1   
     9    8    9 1   
    10    8   11 1   
    11    8   16 1   
    12    9   10 2   
    13    9   19 1   
    14   11   12 1   
    15   11   17 1   
    16   11   18 1   
    17   12   13 1   
    18   12   14 1   
    19   19   20 1   
    20   19   24 1   
    21   20   21 1   
    22   20   23 1   
    23   20   25 1   
    24   21   22 2   
    25   21   29 1   
    26   23   26 1   
    27   23   27 1   
    28   23   28 1   
    29   29   30 1   
    30   29   37 1   
    31   30   31 1   
    32   30   33 1   
    33   30   38 1   
    34   31   32 2   
    35   31   41 1   
    36   33   34 1   
    37   33   39 1   
    38   33   40 1   
    39   34   35 1   
    40   34   36 1   
    41   41   42 1   
    42   41   45 1   
    43   42   43 1   
    44   42   46 1   
    45   42   47 1   
    46   43   44 2   
    47   43   48 1   
    48   48   49 1   
    49   48   56 1   
    50   49   50 1   
    51   49   52 1   
    52   49   57 1   
    53   50   51 2   
    54   50   62 1   
    55   52   53 1   
    56   52   58 1   
    57   52   59 1   
    58   53   54 1   
    59   53   55 2   
    60   54   60 1   
    61   54   61 1   
    62   62   63 1   
    63   62   66 1   
    64   63   64 1   
    65   63   67 1   
    66   63   68 1   
    67   64   65 2   
    68   64   69 1   
    69   69   70 1   
    70   69   76 1   
    71   70   71 1   
    72   70   73 1   
    73   70   77 1   
    74   71   72 2   
    75   71   83 1   
    76   73   74 1   
    77   73   75 1   
    78   73   78 1   
    79   74   80 1   
    80   74   81 1   
    81   74   82 1   
    82   75   79 1   
    83   83   84 1   
    84   83   91 1   
    85   84   85 1   
    86   84   87 1   
    87   84   92 1   
    88   85   86 2   
    89   85  102 1   
    90   87   88 1   
    91   87   89 1   
    92   87   93 1   
    93   88   90 1   
    94   88   94 1   
    95   88   95 1   
    96   89   96 1   
    97   89   97 1   
    98   89   98 1   
    99   90   99 1   
   100   90  100 1   
   101   90  101 1   
   102  102  103 1   
   103  102  110 1   
   104  103  104 1   
   105  103  106 1   
   106  103  111 1   
   107  104  105 2   
   108  104  114 1   
   109  106  107 1   
   110  106  112 1   
   111  106  113 1   
   112  107  108 1   
   113  107  109 1   
   114  114  115 1   
   115  114  125 1   
   116  115  116 1   
   117  115  118 1   
   118  115  126 1   
   119  116  117 2   
   120  116  134 1   
   121  118  119 1   
   122  118  127 1   
   123  118  128 1   
   124  119  120 ar  
   125  119  121 ar  
   126  120  122 ar  
   127  120  129 1   
   128  121  123 ar  
   129  121  130 1   
   130  122  124 ar  
   131  122  131 1   
   132  123  124 ar  
   133  123  132 1   
   134  124  133 1   
   135  134  135 1   
   136  134  140 1   
   137  135  136 1   
   138  135  138 1   
   139  135  141 1   
   140  136  137 2   
   141  136  148 1   
   142  138  139 1   
   143  138  142 1   
   144  138  143 1   
   145  139  140 1   
   146  139  144 1   
   147  139  145 1   
   148  140  146 1   
   149  140  147 1   
   150  148  149 1   
   151  148  157 1   
   152  149  150 1   
   153  149  152 1   
   154  149  158 1   
   155  150  151 2   
   156  150  163 1   
   157  152  153 1   
   158  152  159 1   
   159  152  160 1   
   160  153  154 1   
   161  153  161 1   
   162  153  162 1   
   163  154  155 1   
   164  154  156 1   
   165  163  164 1   
   166  163  168 1   
   167  164  165 1   
   168  164  166 1   
   169  164  167 1   
   170  170  171 1   
   171  170  172 1   
   172  173  174 1   
   173  173  175 1   
   174  176  177 1   
   175  176  178 1   
   176  179  180 1   
   177  179  181 1   
@<TRIPOS>SUBSTRUCTURE
     1 MOL         1 TEMP              0 ****  ****    0 ROOT
