@<TRIPOS>MOLECULE
MOL
  195   189     1     0     0
SMALL
resp


@<TRIPOS>ATOM
      1 C1         -2.4420    2.1700   -1.5640 c3        1 MOL     -0.195827
      2 C2         -1.5310    2.9400   -0.5400 c         1 MOL      0.412572
      3 O1         -0.4610    2.3940   -0.1720 o         1 MOL     -0.482134
      4 H1         -3.1490    2.8670   -2.0160 hc        1 MOL      0.006562
      5 H2         -1.8200    1.7270   -2.3430 hc        1 MOL      0.006562
      6 H3         -2.9900    1.3850   -1.0440 hc        1 MOL      0.006562
      7 N1         -2.0130    4.0620   -0.0330 n         1 MOL     -0.089627
      8 C3         -1.4520    4.8840    0.9780 c3        1 MOL     -0.055134
      9 C4          0.0100    5.0770    0.6350 c         1 MOL      0.640981
     10 O2          0.8930    4.9230    1.4710 o         1 MOL     -0.488161
     11 C5         -1.7280    4.3270    2.4290 c3        1 MOL     -0.287404
     12 C6         -1.2350    5.2670    3.5210 c         1 MOL      0.784179
     13 O3         -1.3770    6.4840    3.4040 o         1 MOL     -0.615295
     14 O4         -0.7710    4.8220    4.5770 o         1 MOL     -0.615295
     15 H4         -2.9010    4.3040   -0.4570 hn        1 MOL      0.135241
     16 H5         -2.0160    5.8070    0.9150 h1        1 MOL      0.045236
     17 H6         -1.2530    3.3470    2.5050 hc        1 MOL      0.071077
     18 H7         -2.7860    4.1300    2.5650 hc        1 MOL      0.071077
     19 N2          0.2760    5.4870   -0.5990 n         1 MOL     -0.571266
     20 C7          1.6760    5.7160   -1.1680 c3        1 MOL     -0.053583
     21 C8          2.5420    6.8580   -0.5350 c         1 MOL      0.588535
     22 O5          2.0170    7.8700   -0.0610 o         1 MOL     -0.568177
     23 C9          1.5630    5.8200   -2.6800 c3        1 MOL      0.082788
     24 C10         0.7660    7.0860   -3.1280 c3        1 MOL      0.144953
     25 C11         1.1090    4.5670   -3.4070 c3        1 MOL     -0.397361
     26 C12         1.3330    7.6940   -4.3610 c3        1 MOL     -0.142552
     27 H8         -0.4550    5.5780   -1.2830 hn        1 MOL      0.249030
     28 H9          2.1020    4.7190   -1.0020 h1        1 MOL      0.163080
     29 H10         2.5740    5.9000   -3.0880 hc        1 MOL      0.131560
     30 H11         0.6770    7.8420   -2.3460 hc        1 MOL     -0.027418
     31 H12        -0.2950    6.8660   -3.3150 hc        1 MOL     -0.027418
     32 H13         1.8490    3.8090   -3.1500 hc        1 MOL      0.108245
     33 H14         0.0910    4.4080   -3.0510 hc        1 MOL      0.108245
     34 H15         1.1440    4.5520   -4.4960 hc        1 MOL      0.108245
     35 H16         1.7150    6.9010   -5.0070 hc        1 MOL      0.003757
     36 H17         0.6060    8.2940   -4.9220 hc        1 MOL      0.003757
     37 H18         2.1770    8.3130   -4.0320 hc        1 MOL      0.003757
     38 N3          3.8470    6.8010   -0.6130 n         1 MOL     -0.519758
     39 C13         4.7620    5.7590   -1.0720 c3        1 MOL     -0.091762
     40 C14         5.9060    5.5920   -0.0230 c         1 MOL      0.729787
     41 O6          6.9540    6.1760   -0.2290 o         1 MOL     -0.569985
     42 C15         5.3080    6.2490   -2.4480 c3        1 MOL     -0.165635
     43 C16         6.2060    5.1720   -3.1020 c         1 MOL      0.711494
     44 O7          6.8790    5.5320   -4.0510 o         1 MOL     -0.664525
     45 O8          6.2360    4.0200   -2.6010 o         1 MOL     -0.664525
     46 H19         4.2900    7.6700   -0.3770 hn        1 MOL      0.305388
     47 H20         4.2080    4.8230   -1.1140 h1        1 MOL      0.048750
     48 H21         5.8710    7.1810   -2.3230 hc        1 MOL      0.043119
     49 H22         4.4800    6.4910   -3.1060 hc        1 MOL      0.043119
     50 N4          5.7290    4.8720    1.0290 n         1 MOL     -0.546108
     51 C17         6.7240    4.7690    2.1450 c3        1 MOL     -0.061030
     52 C18         6.7570    3.3920    2.7650 c         1 MOL      0.557066
     53 O9          7.5010    3.2870    3.6990 o         1 MOL     -0.582373
     54 H23         4.7850    4.5620    1.1880 hn        1 MOL      0.336608
     55 H24         6.4730    5.4820    2.9250 h1        1 MOL      0.094238
     56 H25         7.7270    5.1130    1.9000 h1        1 MOL      0.094238
     57 N5          5.9530    2.4370    2.3740 n         1 MOL     -0.351978
     58 C19         6.1550    1.0070    2.8410 c3        1 MOL      0.076443
     59 C20         7.0770    0.0820    2.0560 c         1 MOL      0.421995
     60 O10         7.9470   -0.4830    2.6960 o         1 MOL     -0.532243
     61 C21         4.7520    0.4320    3.1210 c3        1 MOL     -0.180202
     62 C22         3.9970   -0.1200    1.8600 c         1 MOL      0.659385
     63 O11         3.1490    0.6090    1.2340 o         1 MOL     -0.649399
     64 O12         4.3840   -1.2470    1.5580 o         1 MOL     -0.649399
     65 H26         5.3150    2.5550    1.6010 hn        1 MOL      0.206361
     66 H27         6.4930    1.0070    3.8800 h1        1 MOL      0.074668
     67 H28         4.1330    1.2230    3.5580 hc        1 MOL      0.043871
     68 H29         4.8880   -0.4360    3.7630 hc        1 MOL      0.043871
     69 N6          7.2180    0.1940    0.7380 n         1 MOL     -0.233059
     70 C23         7.9100   -0.6870   -0.1770 c3        1 MOL     -0.251727
     71 C24         7.5820   -2.1870   -0.0270 c         1 MOL      0.580041
     72 O13         8.1950   -2.9450   -0.7600 o         1 MOL     -0.612244
     73 H30         6.5260    0.8380    0.3860 hn        1 MOL      0.250813
     74 H31         8.9800   -0.5360   -0.0260 h1        1 MOL      0.128425
     75 H32         7.6320   -0.3500   -1.1720 h1        1 MOL      0.128425
     76 N7          6.5430   -2.5790    0.7210 n         1 MOL     -0.119258
     77 C25         6.1240   -3.9760    0.9660 c3        1 MOL      0.091854
     78 C26         5.8620   -4.8660   -0.3150 c         1 MOL      0.505628
     79 O14         5.8870   -6.0910   -0.2570 o         1 MOL     -0.512645
     80 C27         6.9160   -4.6240    2.1560 c3        1 MOL      0.131191
     81 C28         6.8150   -3.8490    3.4950 c3        1 MOL     -0.050862
     82 C29         6.6540   -4.6470    4.8100 c         1 MOL      0.571617
     83 N8          6.4610   -4.0390    5.9430 n         1 MOL     -0.707904
     84 O15         6.5990   -5.8550    4.7580 o         1 MOL     -0.564509
     85 H33         5.9070   -1.8740    1.0600 hn        1 MOL      0.058629
     86 H34         5.0780   -3.7840    1.2020 h1        1 MOL      0.064462
     87 H35         7.9380   -4.6810    1.7860 hc        1 MOL     -0.032151
     88 H36         6.5590   -5.6420    2.2850 hc        1 MOL     -0.032151
     89 H37         5.9890   -3.1320    3.4620 hc        1 MOL     -0.001457
     90 H38         7.7540   -3.3030    3.6000 hc        1 MOL     -0.001457
     91 H39         6.5830   -3.0380    5.9340 hn        1 MOL      0.330492
     92 H40         6.4230   -4.6600    6.7490 hn        1 MOL      0.330492
     93 N9          5.5690   -4.1920   -1.5010 n         1 MOL     -0.529733
     94 C30         5.2440   -5.0140   -2.7060 c3        1 MOL     -0.045732
     95 C31         3.8310   -4.7830   -3.2210 c         1 MOL      0.568141
     96 O16         3.3600   -5.5690   -4.0320 o         1 MOL     -0.601003
     97 C32         6.2740   -4.8060   -3.8800 c3        1 MOL      0.406814
     98 C33         6.2800   -3.3010   -4.4340 c3        1 MOL     -0.440033
     99 C34         7.6300   -5.2880   -3.2840 c3        1 MOL     -0.440033
    100 H41         5.4410   -3.1960   -1.4030 hn        1 MOL      0.292683
    101 H42         5.2410   -6.0650   -2.4170 h1        1 MOL      0.110526
    102 H43         5.9790   -5.5500   -4.6240 hc        1 MOL     -0.069569
    103 H44         6.4320   -2.5790   -3.6330 hc        1 MOL      0.101496
    104 H45         7.0170   -3.1920   -5.2230 hc        1 MOL      0.101496
    105 H46         5.2800   -3.0460   -4.7790 hc        1 MOL      0.101496
    106 H47         7.5910   -6.2850   -2.8420 hc        1 MOL      0.101496
    107 H48         8.1650   -5.3740   -4.2340 hc        1 MOL      0.101496
    108 H49         8.0150   -4.4880   -2.6460 hc        1 MOL      0.101496
    109 N10         3.0310   -3.7970   -2.7310 n         1 MOL     -0.419252
    110 C35         1.6010   -3.5600   -2.9500 c3        1 MOL      0.234689
    111 C36         0.9530   -3.4130   -1.5530 c         1 MOL      0.522652
    112 O17         1.5590   -3.3900   -0.5020 o         1 MOL     -0.522298
    113 C37         1.4010   -2.2650   -3.7830 c3        1 MOL     -0.213068
    114 C38         0.0960   -1.9200   -4.4360 c         1 MOL      0.659184
    115 N11         0.1170   -1.6920   -5.7260 n         1 MOL     -0.805921
    116 O18        -0.9450   -1.7810   -3.8230 o         1 MOL     -0.539233
    117 H50         3.4940   -3.2000   -2.0580 hn        1 MOL      0.235559
    118 H51         1.1760   -4.4130   -3.4790 h1        1 MOL      0.039307
    119 H52         2.1260   -2.3610   -4.5890 hc        1 MOL      0.063162
    120 H53         1.7420   -1.4290   -3.1730 hc        1 MOL      0.063162
    121 H54         0.9990   -1.4860   -6.1700 hn        1 MOL      0.364526
    122 H55        -0.7770   -1.6310   -6.1830 hn        1 MOL      0.364526
    123 N12        -0.3800   -3.3110   -1.4870 n         1 MOL     -0.569640
    124 C39        -1.1470   -3.1390   -0.2280 c3        1 MOL      0.137955
    125 C40        -2.5540   -3.7400   -0.4370 c         1 MOL      0.725718
    126 O19        -3.0220   -3.7410   -1.5780 o         1 MOL     -0.603725
    127 C41        -1.1470   -1.6350    0.2070 c3        1 MOL     -0.263441
    128 C42        -1.7820   -1.4240    1.5630 ca        1 MOL      0.026356
    129 C43        -3.1910   -1.4370    1.7850 ca        1 MOL     -0.134105
    130 C44        -0.9080   -1.2050    2.6580 ca        1 MOL     -0.134105
    131 C45        -3.7340   -1.1690    3.0240 ca        1 MOL     -0.237120
    132 C46        -1.4800   -0.9230    3.9120 ca        1 MOL     -0.237120
    133 C47        -2.8870   -0.9130    4.1370 ca        1 MOL      0.276170
    134 O20        -3.4330   -0.7500    5.4150 oh        1 MOL     -0.503630
    135 H56        -0.9120   -3.2880   -2.3400 hn        1 MOL      0.272015
    136 H57        -0.6760   -3.6610    0.6040 h1        1 MOL      0.071047
    137 H58        -1.6670   -1.0620   -0.5580 hc        1 MOL      0.191292
    138 H59        -0.1280   -1.2440    0.3020 hc        1 MOL      0.191292
    139 H60        -3.9550   -1.4860    1.0240 ha        1 MOL      0.176864
    140 H61         0.1650   -1.1500    2.5190 ha        1 MOL      0.176864
    141 H62        -4.7960   -1.2950    3.1770 ha        1 MOL      0.142249
    142 H63        -0.8490   -0.7940    4.7750 ha        1 MOL      0.142249
    143 H64        -4.3650   -0.5120    5.3420 ho        1 MOL      0.368263
    144 N13        -3.3400   -4.1960    0.5990 n         1 MOL     -1.013773
    145 C48        -4.6130   -4.9520    0.3400 c3        1 MOL      0.598537
    146 C49        -5.7010   -4.2440    1.1960 c         1 MOL      0.708981
    147 O21        -5.8740   -4.4240    2.3430 o         1 MOL     -0.577597
    148 C50        -4.3020   -6.4720    0.6560 c3        1 MOL      0.335746
    149 C51        -5.4580   -7.2460    0.1850 c3        1 MOL     -0.349056
    150 C52        -6.4680   -7.5580    1.2480 c         1 MOL      0.723855
    151 O22        -6.0550   -8.0070    2.3030 o         1 MOL     -0.648362
    152 O23        -7.7050   -7.3850    0.9940 o         1 MOL     -0.648362
    153 H65        -3.0740   -3.9950    1.5510 hn        1 MOL      0.373519
    154 H66        -4.8890   -4.8230   -0.7000 h1        1 MOL     -0.055480
    155 H67        -4.1510   -6.4150    1.7410 hc        1 MOL     -0.096458
    156 H68        -3.4010   -6.7860    0.1240 hc        1 MOL     -0.096458
    157 H69        -5.1700   -8.2060   -0.2440 hc        1 MOL      0.044013
    158 H70        -5.9460   -6.6450   -0.5800 hc        1 MOL      0.044013
    159 N14        -6.4620   -3.3290    0.5700 n         1 MOL     -0.783371
    160 C53        -6.2050   -2.7180   -0.7650 c3        1 MOL     -0.016151
    161 C54        -6.5730   -3.5760   -2.0050 c         1 MOL      0.309931
    162 O24        -7.5820   -4.3430   -1.9760 o         1 MOL     -0.484530
    163 C55        -7.0490   -1.3730   -0.8010 c3        1 MOL      0.076903
    164 C56        -6.8300   -0.2680    0.2680 c3        1 MOL     -0.383878
    165 C57        -7.7850    1.0030    0.0840 c         1 MOL      0.884824
    166 O25        -7.4630    2.0910    0.6480 o         1 MOL     -0.763655
    167 O26        -8.8070    1.0450   -0.6420 o         1 MOL     -0.763655
    168 H71        -7.2390   -3.0030    1.1320 hn        1 MOL      0.384516
    169 H72        -5.1320   -2.5370   -0.8270 h1        1 MOL      0.105747
    170 H73        -8.1180   -1.5670   -0.7400 hc        1 MOL      0.044909
    171 H74        -6.9280   -1.0030   -1.8140 hc        1 MOL      0.044909
    172 H75        -5.7780    0.0520    0.3210 hc        1 MOL      0.099518
    173 H76        -7.0170   -0.7300    1.2340 hc        1 MOL      0.099518
    174 N15        -5.7940   -3.3900   -3.0530 n         1 MOL     -0.012819
    175 C58        -5.8420   -3.9820   -4.3630 c3        1 MOL     -0.750355
    176 H77        -5.7020   -5.0600   -4.2790 h1        1 MOL      0.229930
    177 H78        -6.8110   -3.7780   -4.8190 h1        1 MOL      0.229930
    178 H79        -5.0520   -3.5600   -4.9830 h1        1 MOL      0.229930
    179 H80        -5.0990   -2.6620   -3.0140 hn        1 MOL      0.227532
    180 Ca1        -9.8030    3.3610   -0.0620 Ca        1 MOL      1.504396
    181 O27       -11.3990    2.3200   -2.0600 oh        1 MOL     -0.764586
    182 O28       -10.9890    5.6680   -1.2090 oh        1 MOL     -0.764586
    183 H81       -12.2830    2.7000   -2.1460 ho        1 MOL      0.326878
    184 H82       -11.9140    5.5910   -1.4320 ho        1 MOL      0.326878
    185 H83       -10.9880    2.4900   -2.9060 ho        1 MOL      0.326878
    186 H84       -10.9210    6.5110   -0.7640 ho        1 MOL      0.326878
    187 O29       -12.1390    4.1500    0.9190 oh        1 MOL     -0.764586
    188 H85       -12.5940    4.9750    1.0660 ho        1 MOL      0.326878
    189 H86       -12.3720    3.6050    1.6690 ho        1 MOL      0.326878
    190 O30       -10.5830    1.6030    1.6900 oh        1 MOL     -0.764586
    191 H87       -10.2870    1.6540    2.5900 ho        1 MOL      0.326878
    192 H88       -11.3000    0.9620    1.6970 ho        1 MOL      0.326878
    193 O31        -9.4940    4.6280    2.3900 oh        1 MOL     -0.764586
    194 H89        -9.6650    5.5660    2.4410 ho        1 MOL      0.326878
    195 H90        -9.7540    4.2870    3.2510 ho        1 MOL      0.326878
@<TRIPOS>BOND
     1    1    2 1   
     2    1    4 1   
     3    1    5 1   
     4    1    6 1   
     5    2    3 2   
     6    2    7 1   
     7    7    8 1   
     8    7   15 1   
     9    8    9 1   
    10    8   11 1   
    11    8   16 1   
    12    9   10 2   
    13    9   19 1   
    14   11   12 1   
    15   11   17 1   
    16   11   18 1   
    17   12   13 1   
    18   12   14 1   
    19   19   20 1   
    20   19   27 1   
    21   20   21 1   
    22   20   23 1   
    23   20   28 1   
    24   21   22 2   
    25   21   38 1   
    26   23   24 1   
    27   23   25 1   
    28   23   29 1   
    29   24   26 1   
    30   24   30 1   
    31   24   31 1   
    32   25   32 1   
    33   25   33 1   
    34   25   34 1   
    35   26   35 1   
    36   26   36 1   
    37   26   37 1   
    38   38   39 1   
    39   38   46 1   
    40   39   40 1   
    41   39   42 1   
    42   39   47 1   
    43   40   41 2   
    44   40   50 1   
    45   42   43 1   
    46   42   48 1   
    47   42   49 1   
    48   43   44 1   
    49   43   45 1   
    50   50   51 1   
    51   50   54 1   
    52   51   52 1   
    53   51   55 1   
    54   51   56 1   
    55   52   53 2   
    56   52   57 1   
    57   57   58 1   
    58   57   65 1   
    59   58   59 1   
    60   58   61 1   
    61   58   66 1   
    62   59   60 2   
    63   59   69 1   
    64   61   62 1   
    65   61   67 1   
    66   61   68 1   
    67   62   63 1   
    68   62   64 1   
    69   69   70 1   
    70   69   73 1   
    71   70   71 1   
    72   70   74 1   
    73   70   75 1   
    74   71   72 2   
    75   71   76 1   
    76   76   77 1   
    77   76   85 1   
    78   77   78 1   
    79   77   80 1   
    80   77   86 1   
    81   78   79 2   
    82   78   93 1   
    83   80   81 1   
    84   80   87 1   
    85   80   88 1   
    86   81   82 1   
    87   81   89 1   
    88   81   90 1   
    89   82   83 1   
    90   82   84 2   
    91   83   91 1   
    92   83   92 1   
    93   93   94 1   
    94   93  100 1   
    95   94   95 1   
    96   94   97 1   
    97   94  101 1   
    98   95   96 2   
    99   95  109 1   
   100   97   98 1   
   101   97   99 1   
   102   97  102 1   
   103   98  103 1   
   104   98  104 1   
   105   98  105 1   
   106   99  106 1   
   107   99  107 1   
   108   99  108 1   
   109  109  110 1   
   110  109  117 1   
   111  110  111 1   
   112  110  113 1   
   113  110  118 1   
   114  111  112 2   
   115  111  123 1   
   116  113  114 1   
   117  113  119 1   
   118  113  120 1   
   119  114  115 1   
   120  114  116 2   
   121  115  121 1   
   122  115  122 1   
   123  123  124 1   
   124  123  135 1   
   125  124  125 1   
   126  124  127 1   
   127  124  136 1   
   128  125  126 2   
   129  125  144 1   
   130  127  128 1   
   131  127  137 1   
   132  127  138 1   
   133  128  129 ar  
   134  128  130 ar  
   135  129  131 ar  
   136  129  139 1   
   137  130  132 ar  
   138  130  140 1   
   139  131  133 ar  
   140  131  141 1   
   141  132  133 ar  
   142  132  142 1   
   143  133  134 1   
   144  134  143 1   
   145  144  145 1   
   146  144  153 1   
   147  145  146 1   
   148  145  148 1   
   149  145  154 1   
   150  146  147 2   
   151  146  159 1   
   152  148  149 1   
   153  148  155 1   
   154  148  156 1   
   155  149  150 1   
   156  149  157 1   
   157  149  158 1   
   158  150  151 1   
   159  150  152 1   
   160  159  160 1   
   161  159  168 1   
   162  160  161 1   
   163  160  163 1   
   164  160  169 1   
   165  161  162 2   
   166  161  174 1   
   167  163  164 1   
   168  163  170 1   
   169  163  171 1   
   170  164  165 1   
   171  164  172 1   
   172  164  173 1   
   173  165  166 1   
   174  165  167 1   
   175  174  175 1   
   176  174  179 1   
   177  175  176 1   
   178  175  177 1   
   179  175  178 1   
   180  181  183 1   
   181  181  185 1   
   182  182  184 1   
   183  182  186 1   
   184  187  188 1   
   185  187  189 1   
   186  190  191 1   
   187  190  192 1   
   188  193  194 1   
   189  193  195 1   
@<TRIPOS>SUBSTRUCTURE
     1 MOL         1 TEMP              0 ****  ****    0 ROOT
