@<TRIPOS>MOLECULE
MOL
  181   177     1     0     0
SMALL
resp


@<TRIPOS>ATOM
      1 C1          9.6700    7.3080   -0.7550 c3        1 MOL     -0.226431
      2 C2          8.5460    6.2570   -0.7040 c         1 MOL      0.596827
      3 O1          7.4470    6.6260   -0.4200 o         1 MOL     -0.561759
      4 H1          9.7890    7.7610    0.2300 hc        1 MOL      0.055003
      5 H2         10.6040    6.8280   -1.0480 hc        1 MOL      0.055003
      6 H3          9.4150    8.0790   -1.4810 hc        1 MOL      0.055003
      7 N1          8.6990    5.0060   -1.1120 n         1 MOL     -0.547599
      8 C3          9.8950    4.4100   -1.7540 c3        1 MOL      0.260871
      9 C4         11.0100    3.9380   -0.8310 c         1 MOL      0.531731
     10 O2         12.1440    3.8810   -1.2380 o         1 MOL     -0.559178
     11 C5          9.4010    3.3190   -2.7910 c3        1 MOL     -0.558178
     12 C6          8.4160    2.3190   -2.2310 c         1 MOL      0.872103
     13 O3          8.1570    2.1930   -1.0100 o         1 MOL     -0.754412
     14 O4          7.8790    1.4320   -3.0090 o         1 MOL     -0.754412
     15 H4          7.8880    4.4650   -0.8300 hn        1 MOL      0.340287
     16 H5         10.3190    5.1720   -2.4080 h1        1 MOL      0.044367
     17 H6         10.2830    2.8460   -3.2220 hc        1 MOL      0.145156
     18 H7          8.9660    3.8720   -3.6320 hc        1 MOL      0.145156
     19 N2         10.5480    3.4330    0.3290 n         1 MOL     -0.541707
     20 C7         11.3840    2.8120    1.2760 c3        1 MOL      0.285387
     21 C8         10.9090    1.4540    1.8510 c         1 MOL      0.352876
     22 O5         11.4750    0.9760    2.8410 o         1 MOL     -0.527813
     23 C9         11.7050    3.8750    2.3280 c3        1 MOL     -0.139002
     24 H8          9.5470    3.3640    0.4250 hn        1 MOL      0.313539
     25 H9         12.3270    2.5990    0.7750 h1        1 MOL      0.016577
     26 H10        10.8170    4.3010    2.7860 hc        1 MOL      0.034205
     27 H11        12.3800    3.4730    3.0970 hc        1 MOL      0.034205
     28 H12        12.2060    4.7570    1.9300 hc        1 MOL      0.034205
     29 N3          9.8890    0.8220    1.2610 n         1 MOL     -0.155488
     30 C10         9.3920   -0.4690    1.6680 c3        1 MOL      0.019615
     31 C11         8.8710   -1.2810    0.4390 c         1 MOL      0.397557
     32 O6          8.5500   -0.7170   -0.5480 o         1 MOL     -0.514856
     33 C12         8.3280   -0.3360    2.8000 c3        1 MOL     -0.240718
     34 C13         7.1880    0.6470    2.5520 c         1 MOL      0.672797
     35 O7          6.8670    1.4950    3.4620 o         1 MOL     -0.666485
     36 O8          6.7010    0.6280    1.4070 o         1 MOL     -0.666485
     37 H13         9.4520    1.3260    0.5070 hn        1 MOL      0.175840
     38 H14        10.2390   -1.0350    2.0580 h1        1 MOL      0.040499
     39 H15         8.9090    0.1050    3.6090 hc        1 MOL      0.065581
     40 H16         7.8100   -1.2570    3.0940 hc        1 MOL      0.065581
     41 N4          8.7640   -2.6170    0.5550 n         1 MOL     -0.370120
     42 C14         8.3360   -3.4630   -0.5620 c3        1 MOL     -0.045889
     43 C15         6.8260   -3.3600   -0.8300 c         1 MOL      0.676116
     44 O9          6.2640   -2.3760   -0.3540 o         1 MOL     -0.525124
     45 H17         8.8970   -3.0380    1.4720 hn        1 MOL      0.286494
     46 H18         8.8510   -4.4230   -0.4510 h1        1 MOL      0.076113
     47 H19         8.8680   -3.1550   -1.4680 h1        1 MOL      0.076113
     48 N5          6.2790   -4.3680   -1.4230 n         1 MOL     -0.771677
     49 C16         4.8590   -4.4470   -1.7820 c3        1 MOL      0.341724
     50 C17         3.8910   -4.7300   -0.5710 c         1 MOL      0.542841
     51 O10         4.3140   -4.7100    0.5840 o         1 MOL     -0.463275
     52 C18         4.7310   -5.4190   -3.0230 c3        1 MOL     -0.218763
     53 C19         5.7640   -5.1390   -4.1290 c         1 MOL      0.633288
     54 N6          5.6360   -4.0260   -4.8730 n         1 MOL     -0.752001
     55 O11         6.7240   -5.9120   -4.3220 o         1 MOL     -0.546276
     56 H20         6.8380   -5.2040   -1.5350 hn        1 MOL      0.363206
     57 H21         4.4790   -3.4990   -2.1780 h1        1 MOL     -0.014104
     58 H22         3.7030   -5.4230   -3.3750 hc        1 MOL      0.058658
     59 H23         4.8560   -6.4390   -2.6580 hc        1 MOL      0.058658
     60 H24         4.8320   -3.4130   -4.8520 hn        1 MOL      0.347285
     61 H25         6.4070   -3.8450   -5.5100 hn        1 MOL      0.347285
     62 N7          2.5720   -4.6920   -0.8610 n         1 MOL     -0.670307
     63 C20         1.6300   -4.6510    0.3160 c3        1 MOL      0.084203
     64 C21         1.5920   -3.3410    1.0740 c         1 MOL      0.672872
     65 O12         2.2570   -2.3510    0.8370 o         1 MOL     -0.580014
     66 H26         2.2300   -4.2600   -1.7100 hn        1 MOL      0.361369
     67 H27         1.8910   -5.4400    1.0230 h1        1 MOL      0.089846
     68 H28         0.6290   -4.9040   -0.0520 h1        1 MOL      0.089846
     69 N8          0.6380   -3.0560    1.9700 n         1 MOL     -0.507885
     70 C22        -0.4500   -3.9740    2.4160 c3        1 MOL     -0.277121
     71 C23        -1.8550   -3.2410    2.4590 c         1 MOL      0.748859
     72 O13        -2.8420   -3.9860    2.5410 o         1 MOL     -0.572948
     73 C24        -0.1540   -4.5480    3.8320 c3        1 MOL      0.466265
     74 C25         1.2350   -5.2650    3.9610 c3        1 MOL     -0.636253
     75 O14        -0.0900   -3.4410    4.6110 oh        1 MOL     -0.547912
     76 H29         0.5120   -2.0760    2.1480 hn        1 MOL      0.333608
     77 H30        -0.5300   -4.7730    1.6920 h1        1 MOL      0.089379
     78 H31        -1.0260   -5.1540    4.1100 h1        1 MOL     -0.019749
     79 H32         0.0780   -3.7490    5.5030 ho        1 MOL      0.377474
     80 H33         1.1500   -6.2170    3.4320 hc        1 MOL      0.158915
     81 H34         2.1050   -4.6420    3.7680 hc        1 MOL      0.158915
     82 H35         1.3070   -5.5260    5.0190 hc        1 MOL      0.158915
     83 N9         -1.9200   -1.9090    2.2880 n         1 MOL     -0.608508
     84 C26        -3.1260   -1.0850    2.2410 c3        1 MOL      0.136701
     85 C27        -3.2060   -0.2000    1.0330 c         1 MOL      0.450540
     86 O15        -2.3600    0.6140    0.7950 o         1 MOL     -0.549032
     87 C28        -3.0820   -0.3600    3.6120 c3        1 MOL      0.220299
     88 C29        -3.0070   -1.2020    4.9420 c3        1 MOL     -0.106476
     89 C30        -4.1760    0.6520    3.6900 c3        1 MOL     -0.190239
     90 C31        -4.1720   -2.1790    5.1790 c3        1 MOL     -0.014298
     91 H36        -1.0660   -1.3800    2.1640 hn        1 MOL      0.314460
     92 H37        -4.0100   -1.7230    2.2590 h1        1 MOL      0.097369
     93 H38        -2.1280    0.1660    3.6710 hc        1 MOL     -0.068284
     94 H39        -2.9600   -0.5050    5.7720 hc        1 MOL      0.023996
     95 H40        -2.0970   -1.8030    4.9370 hc        1 MOL      0.023996
     96 H41        -4.2240    1.0450    4.7040 hc        1 MOL      0.059117
     97 H42        -3.8990    1.4200    2.9650 hc        1 MOL      0.059117
     98 H43        -5.0610    0.1230    3.3070 hc        1 MOL      0.059117
     99 H44        -4.3450   -2.7240    4.2500 hc        1 MOL     -0.011725
    100 H45        -3.8230   -2.8540    5.9500 hc        1 MOL     -0.011725
    101 H46        -5.1200   -1.7080    5.4370 hc        1 MOL     -0.011725
    102 N10        -4.3230   -0.2860    0.2910 n         1 MOL     -0.252522
    103 C32        -5.6010   -1.1120    0.3670 c3        1 MOL     -0.052218
    104 C33        -6.7860   -0.3600   -0.1990 c         1 MOL      0.485028
    105 O16        -6.7850    0.6680   -0.8090 o         1 MOL     -0.484965
    106 C34        -5.2650   -2.3220   -0.5760 c3        1 MOL     -0.028472
    107 C35        -4.4790   -2.0330   -1.8450 c         1 MOL      0.670065
    108 O17        -3.2970   -2.3230   -1.9040 o         1 MOL     -0.716668
    109 O18        -5.0490   -1.4320   -2.7510 o         1 MOL     -0.716668
    110 H47        -4.3230    0.4130   -0.4460 hn        1 MOL      0.269802
    111 H48        -5.8560   -1.5430    1.3360 h1        1 MOL      0.093414
    112 H49        -6.2170   -2.8290   -0.7730 hc        1 MOL     -0.040832
    113 H50        -4.6630   -3.0170    0.0020 hc        1 MOL     -0.040832
    114 N11        -7.9990   -0.8570    0.0860 n         1 MOL     -0.455934
    115 C36        -9.2650   -0.5540   -0.6030 c3        1 MOL      0.333671
    116 C37       -10.4490   -0.1640    0.2680 c         1 MOL      0.238704
    117 O19       -10.6870   -0.7830    1.2740 o         1 MOL     -0.511464
    118 C38        -9.6330   -1.7280   -1.5680 c3        1 MOL     -0.110210
    119 C39       -10.8010   -1.4770   -2.4890 ca        1 MOL      0.106263
    120 C40       -12.1900   -1.6060   -2.1010 ca        1 MOL     -0.234650
    121 C41       -10.4990   -1.3110   -3.8700 ca        1 MOL     -0.234650
    122 C42       -13.1700   -1.5350   -3.0690 ca        1 MOL     -0.020142
    123 C43       -11.4750   -1.2940   -4.8350 ca        1 MOL     -0.020142
    124 C44       -12.8770   -1.3530   -4.3860 ca        1 MOL     -0.235999
    125 H51        -8.0550   -1.5600    0.8120 hn        1 MOL      0.255821
    126 H52        -9.1120    0.2440   -1.3410 h1        1 MOL      0.065751
    127 H53        -9.8800   -2.6170   -0.9850 hc        1 MOL      0.042447
    128 H54        -8.7270   -1.9500   -2.1350 hc        1 MOL      0.042447
    129 H55       -12.4600   -1.9400   -1.1130 ha        1 MOL      0.154795
    130 H56        -9.4690   -1.3070   -4.1920 ha        1 MOL      0.154795
    131 H57       -14.1860   -1.7680   -2.7860 ha        1 MOL      0.085251
    132 H58       -11.1760   -1.2650   -5.8730 ha        1 MOL      0.085251
    133 H59       -13.6520   -1.3060   -5.1270 ha        1 MOL      0.113920
    134 N12       -11.3270    0.7900   -0.0800 n         1 MOL     -0.004911
    135 C45       -11.3220    1.7560   -1.1410 c3        1 MOL      0.034751
    136 C46        -9.8970    2.5090   -1.1440 c         1 MOL      0.472940
    137 O20        -9.2550    2.6350   -2.1830 o         1 MOL     -0.555925
    138 C47       -12.4520    2.7400   -0.7480 c3        1 MOL     -0.027925
    139 C48       -13.5140    1.8190   -0.2210 c3        1 MOL     -0.079600
    140 C49       -12.6020    0.9070    0.5950 c3        1 MOL      0.073362
    141 H60       -11.4800    1.3520   -2.1480 h1        1 MOL      0.049615
    142 H61       -12.0760    3.4050    0.0330 hc        1 MOL      0.029839
    143 H62       -12.7700    3.3500   -1.5920 hc        1 MOL      0.029839
    144 H63       -14.2410    2.2320    0.4750 hc        1 MOL      0.014650
    145 H64       -14.0380    1.2450   -0.9890 hc        1 MOL      0.014650
    146 H65       -12.4810    1.3060    1.6020 h1        1 MOL      0.013345
    147 H66       -13.0850   -0.0600    0.6790 h1        1 MOL      0.013345
    148 N13        -9.3420    2.9920    0.0360 n         1 MOL     -0.557021
    149 C50        -8.0290    3.7330    0.1240 c3        1 MOL      0.409431
    150 C51        -8.1910    5.1460   -0.5290 c         1 MOL      0.365629
    151 O21        -8.7530    6.0210    0.1420 o         1 MOL     -0.578840
    152 C52        -7.7450    3.7920    1.6920 c3        1 MOL      0.133188
    153 C53        -7.0470    2.5900    2.2540 c3        1 MOL      0.018807
    154 C54        -6.7280    2.7440    3.7650 c         1 MOL      0.703891
    155 O22        -7.1880    1.9780    4.6260 o         1 MOL     -0.700491
    156 O23        -6.0970    3.7890    4.1930 o         1 MOL     -0.700491
    157 H67        -9.8580    2.8420    0.8950 hn        1 MOL      0.294915
    158 H68        -7.1870    3.2620   -0.3930 h1        1 MOL      0.019360
    159 H69        -8.6900    4.0200    2.1870 hc        1 MOL     -0.060410
    160 H70        -7.0130    4.5750    1.8890 hc        1 MOL     -0.060410
    161 H71        -6.1370    2.4270    1.6790 hc        1 MOL     -0.106968
    162 H72        -7.6280    1.6770    2.1580 hc        1 MOL     -0.106968
    163 N14        -7.6330    5.4130   -1.7140 n         1 MOL     -0.290413
    164 C55        -6.8290    4.6030   -2.6310 c3        1 MOL     -0.256314
    165 H73        -7.3880    3.7090   -2.9100 h1        1 MOL      0.114971
    166 H74        -6.6020    5.1830   -3.5260 h1        1 MOL      0.114971
    167 H75        -5.9010    4.3110   -2.1410 h1        1 MOL      0.114971
    168 H76        -7.5910    6.3960   -1.9310 hn        1 MOL      0.248891
    169 Ca1         6.3200    0.3580   -1.1580 Ca        1 MOL      1.712511
    170 O24         4.9630    1.0560   -3.5410 oh        1 MOL     -0.843578
    171 H77         4.3780    0.5400   -4.0770 ho        1 MOL      0.409387
    172 H78         4.6200    1.9520   -3.5940 ho        1 MOL      0.409387
    173 O25         4.9200    2.7720   -0.8020 oh        1 MOL     -0.843578
    174 H79         4.3380    2.9850   -0.0780 ho        1 MOL      0.409387
    175 H80         4.4440    3.0690   -1.5870 ho        1 MOL      0.409387
    176 O26         6.7770   -1.2200   -3.1210 oh        1 MOL     -0.843578
    177 H81         6.3730   -1.3480   -3.9780 ho        1 MOL      0.409387
    178 H82         7.7170   -1.2930   -3.2990 ho        1 MOL      0.409387
    179 O27         3.7740   -0.4330   -0.6220 oh        1 MOL     -0.843578
    180 H83         3.6240   -1.0750    0.0650 ho        1 MOL      0.409387
    181 H84         2.9000   -0.2030   -0.9420 ho        1 MOL      0.409387
@<TRIPOS>BOND
     1    1    2 1   
     2    1    4 1   
     3    1    5 1   
     4    1    6 1   
     5    2    3 2   
     6    2    7 1   
     7    7    8 1   
     8    7   15 1   
     9    8    9 1   
    10    8   11 1   
    11    8   16 1   
    12    9   10 2   
    13    9   19 1   
    14   11   12 1   
    15   11   17 1   
    16   11   18 1   
    17   12   13 1   
    18   12   14 1   
    19   19   20 1   
    20   19   24 1   
    21   20   21 1   
    22   20   23 1   
    23   20   25 1   
    24   21   22 2   
    25   21   29 1   
    26   23   26 1   
    27   23   27 1   
    28   23   28 1   
    29   29   30 1   
    30   29   37 1   
    31   30   31 1   
    32   30   33 1   
    33   30   38 1   
    34   31   32 2   
    35   31   41 1   
    36   33   34 1   
    37   33   39 1   
    38   33   40 1   
    39   34   35 1   
    40   34   36 1   
    41   41   42 1   
    42   41   45 1   
    43   42   43 1   
    44   42   46 1   
    45   42   47 1   
    46   43   44 2   
    47   43   48 1   
    48   48   49 1   
    49   48   56 1   
    50   49   50 1   
    51   49   52 1   
    52   49   57 1   
    53   50   51 2   
    54   50   62 1   
    55   52   53 1   
    56   52   58 1   
    57   52   59 1   
    58   53   54 1   
    59   53   55 2   
    60   54   60 1   
    61   54   61 1   
    62   62   63 1   
    63   62   66 1   
    64   63   64 1   
    65   63   67 1   
    66   63   68 1   
    67   64   65 2   
    68   64   69 1   
    69   69   70 1   
    70   69   76 1   
    71   70   71 1   
    72   70   73 1   
    73   70   77 1   
    74   71   72 2   
    75   71   83 1   
    76   73   74 1   
    77   73   75 1   
    78   73   78 1   
    79   74   80 1   
    80   74   81 1   
    81   74   82 1   
    82   75   79 1   
    83   83   84 1   
    84   83   91 1   
    85   84   85 1   
    86   84   87 1   
    87   84   92 1   
    88   85   86 2   
    89   85  102 1   
    90   87   88 1   
    91   87   89 1   
    92   87   93 1   
    93   88   90 1   
    94   88   94 1   
    95   88   95 1   
    96   89   96 1   
    97   89   97 1   
    98   89   98 1   
    99   90   99 1   
   100   90  100 1   
   101   90  101 1   
   102  102  103 1   
   103  102  110 1   
   104  103  104 1   
   105  103  106 1   
   106  103  111 1   
   107  104  105 2   
   108  104  114 1   
   109  106  107 1   
   110  106  112 1   
   111  106  113 1   
   112  107  108 1   
   113  107  109 1   
   114  114  115 1   
   115  114  125 1   
   116  115  116 1   
   117  115  118 1   
   118  115  126 1   
   119  116  117 2   
   120  116  134 1   
   121  118  119 1   
   122  118  127 1   
   123  118  128 1   
   124  119  120 ar  
   125  119  121 ar  
   126  120  122 ar  
   127  120  129 1   
   128  121  123 ar  
   129  121  130 1   
   130  122  124 ar  
   131  122  131 1   
   132  123  124 ar  
   133  123  132 1   
   134  124  133 1   
   135  134  135 1   
   136  134  140 1   
   137  135  136 1   
   138  135  138 1   
   139  135  141 1   
   140  136  137 2   
   141  136  148 1   
   142  138  139 1   
   143  138  142 1   
   144  138  143 1   
   145  139  140 1   
   146  139  144 1   
   147  139  145 1   
   148  140  146 1   
   149  140  147 1   
   150  148  149 1   
   151  148  157 1   
   152  149  150 1   
   153  149  152 1   
   154  149  158 1   
   155  150  151 2   
   156  150  163 1   
   157  152  153 1   
   158  152  159 1   
   159  152  160 1   
   160  153  154 1   
   161  153  161 1   
   162  153  162 1   
   163  154  155 1   
   164  154  156 1   
   165  163  164 1   
   166  163  168 1   
   167  164  165 1   
   168  164  166 1   
   169  164  167 1   
   170  170  171 1   
   171  170  172 1   
   172  173  174 1   
   173  173  175 1   
   174  176  177 1   
   175  176  178 1   
   176  179  180 1   
   177  179  181 1   
@<TRIPOS>SUBSTRUCTURE
     1 MOL         1 TEMP              0 ****  ****    0 ROOT
