@<TRIPOS>MOLECULE
MOL
  188   182     1     0     0
SMALL
resp


@<TRIPOS>ATOM
      1 C1          6.2820   -0.2820    4.0030 c3        1 MOL     -0.443990
      2 C2          6.5540    0.4880    2.6680 c         1 MOL      0.578038
      3 O1          5.7270    0.3590    1.7590 o         1 MOL     -0.562181
      4 H1          7.0690   -0.0520    4.7220 hc        1 MOL      0.119524
      5 H2          5.3180    0.0240    4.4090 hc        1 MOL      0.119524
      6 H3          6.2710   -1.3550    3.8080 hc        1 MOL      0.119524
      7 N1          7.6830    1.2230    2.5050 n         1 MOL     -0.492886
      8 C3          8.0490    2.0460    1.3900 c3        1 MOL      0.314390
      9 C4          8.2120    1.2350    0.0700 c         1 MOL      0.321727
     10 O2          8.2920    1.6840   -1.0870 o         1 MOL     -0.414773
     11 C5          7.1260    3.2780    1.3560 c3        1 MOL     -0.279389
     12 C6          7.5630    4.2900    0.2880 c         1 MOL      0.611656
     13 O3          8.7870    4.4660   -0.0990 o         1 MOL     -0.621081
     14 O4          6.6260    4.9030   -0.3350 o         1 MOL     -0.621081
     15 H4          8.4030    1.1730    3.2080 hn        1 MOL      0.284028
     16 H5          8.9860    2.5630    1.5830 h1        1 MOL     -0.016010
     17 H6          7.2050    3.7600    2.3250 hc        1 MOL      0.089045
     18 H7          6.0760    3.0200    1.2600 hc        1 MOL      0.089045
     19 N2          8.5070   -0.0470    0.2870 n         1 MOL     -0.266500
     20 C7          8.7130   -1.0450   -0.7500 c3        1 MOL     -0.095444
     21 C8          7.3940   -1.6640   -1.3400 c         1 MOL      0.567363
     22 O5          7.4670   -2.3890   -2.3470 o         1 MOL     -0.554807
     23 C9          9.5640   -2.1480   -0.1790 c3        1 MOL      0.185967
     24 C10        11.0500   -1.7350   -0.0630 c3        1 MOL     -0.147010
     25 C11        11.8560   -2.7990    0.6710 c3        1 MOL      0.058402
     26 C12        13.3570   -2.4520    0.7050 c3        1 MOL      0.013710
     27 N3         14.1450   -3.4810    1.4760 n4        1 MOL     -0.058591
     28 H8          8.6910   -0.3070    1.2440 hn        1 MOL      0.162564
     29 H9          9.2890   -0.5860   -1.5540 h1        1 MOL      0.114406
     30 H10         9.4830   -2.9790   -0.8940 hc        1 MOL     -0.024999
     31 H11         9.1100   -2.5770    0.7100 hc        1 MOL     -0.024999
     32 H12        11.0530   -0.7400    0.3630 hc        1 MOL      0.052306
     33 H13        11.4480   -1.6810   -1.0760 hc        1 MOL      0.052306
     34 H14        11.6680   -3.7740    0.2230 hc        1 MOL     -0.001326
     35 H15        11.5640   -2.8720    1.7130 hc        1 MOL     -0.001326
     36 H16        13.4720   -1.4790    1.1850 hx        1 MOL      0.069327
     37 H17        13.8320   -2.4030   -0.2680 hx        1 MOL      0.069327
     38 H18        15.1390   -3.5030    1.3080 hn        1 MOL      0.155359
     39 H19        14.0700   -3.3810    2.4740 hn        1 MOL      0.155359
     40 H20        13.9180   -4.4540    1.2930 hn        1 MOL      0.155359
     41 N4          6.2250   -1.2420   -0.8120 n         1 MOL     -0.282765
     42 C13         4.9170   -1.8670   -1.1350 c3        1 MOL     -0.345677
     43 C14         4.3300   -1.4780   -2.5250 c         1 MOL      0.515778
     44 O6          4.3840   -0.3330   -2.9130 o         1 MOL     -0.411706
     45 C15         3.8610   -1.4850   -0.0120 c3        1 MOL      0.219275
     46 C16         2.4540   -1.9230   -0.2900 c         1 MOL      0.539769
     47 O7          1.7720   -1.1410   -1.0020 o         1 MOL     -0.732509
     48 O8          1.8880   -2.8270    0.2830 o         1 MOL     -0.732509
     49 H21         6.2000   -0.5550   -0.0660 hn        1 MOL      0.214053
     50 H22         5.1400   -2.9300   -1.0590 h1        1 MOL      0.100536
     51 H23         3.8170   -0.4210    0.2330 hc        1 MOL      0.012374
     52 H24         4.1850   -1.9980    0.9010 hc        1 MOL      0.012374
     53 N5          3.7610   -2.4370   -3.2350 n         1 MOL     -0.103438
     54 C17         3.3680   -2.1840   -4.6230 c3        1 MOL     -0.442088
     55 C18         2.4400   -0.9400   -4.9130 c         1 MOL      0.586021
     56 O9          2.4940   -0.3480   -6.0000 o         1 MOL     -0.535204
     57 H25         3.8490   -3.3610   -2.8450 hn        1 MOL      0.221772
     58 H26         2.8000   -3.0310   -5.0110 h1        1 MOL      0.179395
     59 H27         4.3410   -1.9420   -5.0620 h1        1 MOL      0.179395
     60 N6          1.6180   -0.4470   -3.9620 n         1 MOL     -0.282818
     61 C19         0.8760    0.8300   -4.0030 c3        1 MOL      0.008005
     62 C20         1.1240    1.7580   -2.8580 c         1 MOL      0.399814
     63 O10         0.3130    2.5980   -2.5660 o         1 MOL     -0.451404
     64 C21        -0.5860    0.7150   -4.5000 c3        1 MOL     -0.392869
     65 C22        -1.4580    0.3430   -3.3570 c         1 MOL      0.646393
     66 N7         -2.6890    0.6820   -3.4440 n         1 MOL     -0.701192
     67 O11        -1.0480   -0.2490   -2.3580 o         1 MOL     -0.710873
     68 H28         1.5640   -0.9230   -3.0690 hn        1 MOL      0.132124
     69 H29         1.3840    1.3630   -4.8040 h1        1 MOL      0.132327
     70 H30        -0.6620   -0.0120   -5.3100 hc        1 MOL      0.161388
     71 H31        -0.9290    1.6600   -4.9260 hc        1 MOL      0.161388
     72 H32        -3.0210    0.8890   -4.3740 hn        1 MOL      0.343963
     73 H33        -3.3350    0.2730   -2.7750 hn        1 MOL      0.343963
     74 N8          2.3480    1.6940   -2.3110 n         1 MOL     -0.155106
     75 C23         3.0080    2.6720   -1.4420 c3        1 MOL     -0.138503
     76 C24         2.3790    2.6660   -0.0730 c         1 MOL      0.457819
     77 O12         2.7450    3.5090    0.7410 o         1 MOL     -0.513808
     78 H34         2.9530    0.9010   -2.4940 hn        1 MOL      0.119431
     79 H35         2.7260    3.6430   -1.8440 h1        1 MOL      0.146823
     80 H36         4.0850    2.4980   -1.3220 h1        1 MOL      0.146823
     81 N9          1.6070    1.6490    0.3260 n         1 MOL     -0.386311
     82 C25         0.9840    1.5010    1.6190 c3        1 MOL      0.033916
     83 C26        -0.4020    0.8640    1.5020 c         1 MOL      0.203829
     84 O13        -0.5520   -0.0180    0.6660 o         1 MOL     -0.427496
     85 C27         1.8610    0.7460    2.5700 c3        1 MOL     -0.194207
     86 C28         1.2320    0.1490    3.8350 ca        1 MOL     -0.045765
     87 C29         0.7250    1.0110    4.8400 ca        1 MOL     -0.084821
     88 C30         1.0710   -1.2350    3.9410 ca        1 MOL     -0.084821
     89 C31         0.2620    0.4300    6.0240 ca        1 MOL     -0.303642
     90 C32         0.5460   -1.8340    5.1070 ca        1 MOL     -0.303642
     91 C33         0.1280   -0.9740    6.1680 ca        1 MOL      0.395412
     92 O14        -0.2940   -1.5440    7.3590 oh        1 MOL     -0.484202
     93 H37         1.4770    0.9010   -0.3410 hn        1 MOL      0.416252
     94 H38         0.8510    2.4500    2.1420 h1        1 MOL      0.054026
     95 H39         2.5020    1.5400    2.9600 hc        1 MOL      0.162454
     96 H40         2.4010   -0.0130    2.0040 hc        1 MOL      0.162454
     97 H41         0.7130    2.0740    4.6400 ha        1 MOL      0.126864
     98 H42         1.4970   -1.8550    3.1630 ha        1 MOL      0.126864
     99 H43        -0.2060    1.0600    6.7590 ha        1 MOL      0.146433
    100 H44         0.6050   -2.8870    5.3370 ha        1 MOL      0.146433
    101 H45        -0.4840   -2.4760    7.2500 ho        1 MOL      0.355605
    102 N10        -1.3970    1.4380    2.2130 n         1 MOL     -0.121987
    103 C34        -2.8400    1.0540    2.0330 c3        1 MOL     -0.300111
    104 C35        -3.3150    1.5780    0.6490 c         1 MOL      0.426492
    105 O15        -4.0310    0.9050   -0.0550 o         1 MOL     -0.463928
    106 C36        -3.6850    1.5420    3.2260 c3        1 MOL      0.115793
    107 C37        -3.2000    1.0700    4.6240 c3        1 MOL     -0.110449
    108 C38        -5.2450    1.3110    3.0460 c3        1 MOL     -0.288635
    109 C39        -3.2370   -0.4700    4.8940 c3        1 MOL      0.011876
    110 H46        -1.1660    2.1520    2.8920 hn        1 MOL      0.232832
    111 H47        -2.8830   -0.0380    2.0580 h1        1 MOL      0.188243
    112 H48        -3.5520    2.6170    3.2810 hc        1 MOL     -0.022098
    113 H49        -3.8840    1.5740    5.3020 hc        1 MOL      0.061579
    114 H50        -2.1610    1.3240    4.8420 hc        1 MOL      0.061579
    115 H51        -5.3170    0.2310    2.8900 hc        1 MOL      0.092685
    116 H52        -5.8890    1.6760    3.8470 hc        1 MOL      0.092685
    117 H53        -5.4770    1.7600    2.0790 hc        1 MOL      0.092685
    118 H54        -2.6950   -0.7440    5.8090 hc        1 MOL     -0.006656
    119 H55        -4.2580   -0.8370    4.9460 hc        1 MOL     -0.006656
    120 H56        -2.7770   -1.0450    4.0840 hc        1 MOL     -0.006656
    121 N11        -2.8100    2.7740    0.2420 n         1 MOL      0.025761
    122 C40        -2.8090    3.4510   -1.0750 c3        1 MOL     -0.330521
    123 C41        -4.2530    3.9950   -1.5190 c         1 MOL      0.488746
    124 O16        -4.5870    4.0870   -2.7060 o         1 MOL     -0.466163
    125 C42        -1.7890    4.6080   -1.0040 c3        1 MOL      0.142563
    126 O17        -0.5320    4.1700   -0.4900 oh        1 MOL     -0.496095
    127 H57        -2.1020    3.1900    0.8260 hn        1 MOL      0.126438
    128 H58        -2.4770    2.7380   -1.8280 h1        1 MOL      0.180068
    129 H59        -2.1980    5.3710   -0.3460 h1        1 MOL      0.061583
    130 H60        -1.6410    5.0170   -2.0030 h1        1 MOL      0.061583
    131 H61        -0.3200    3.4690   -1.1040 ho        1 MOL      0.327961
    132 N12        -5.1180    4.2230   -0.4630 n         1 MOL     -0.414435
    133 C43        -6.5790    4.3400   -0.4850 c3        1 MOL      0.172185
    134 C44        -7.3450    3.1640   -1.0360 c         1 MOL      0.454761
    135 O18        -8.5340    3.3490   -1.3880 o         1 MOL     -0.518173
    136 C45        -6.9770    5.5850   -1.2670 c3        1 MOL     -0.467539
    137 H62        -4.8350    4.2940    0.5010 hn        1 MOL      0.232641
    138 H63        -6.9140    4.3980    0.5440 h1        1 MOL      0.076188
    139 H64        -8.0040    5.8500   -1.0040 hc        1 MOL      0.137318
    140 H65        -6.4010    6.4350   -0.9020 hc        1 MOL      0.137318
    141 H66        -6.7270    5.5600   -2.3260 hc        1 MOL      0.137318
    142 N13        -6.6970    1.9620   -1.0750 n         1 MOL     -0.350760
    143 C46        -7.2050    0.7220   -1.5980 c3        1 MOL      0.159405
    144 C47        -7.7620   -0.1760   -0.5620 c         1 MOL      0.448690
    145 O19        -7.1260   -0.3470    0.4890 o         1 MOL     -0.515642
    146 C48        -6.0810    0.1000   -2.4440 c3        1 MOL     -0.107544
    147 H67        -5.6890    1.8710   -0.9480 hn        1 MOL      0.233980
    148 H68        -7.9750    1.0910   -2.2760 h1        1 MOL      0.025874
    149 H69        -6.4780   -0.7100   -3.0650 hc        1 MOL      0.024818
    150 H70        -5.5340    0.8560   -3.0060 hc        1 MOL      0.024818
    151 H71        -5.3220   -0.3110   -1.7750 hc        1 MOL      0.024818
    152 N14        -8.8810   -0.8850   -0.8520 n         1 MOL     -0.416482
    153 C49        -9.4630   -1.9260   -0.0320 c3        1 MOL      0.024822
    154 C50        -9.8710   -1.5630    1.4170 c         1 MOL      0.375535
    155 O20        -9.9450   -2.3400    2.4190 o         1 MOL     -0.488397
    156 C51        -8.6610   -3.2360   -0.2010 c3        1 MOL      0.232388
    157 C52        -9.3610   -4.6060    0.0370 c3        1 MOL     -0.309103
    158 C53       -10.6890   -4.8510   -0.7510 c         1 MOL      0.780462
    159 O21       -11.6700   -4.3880   -0.2050 o         1 MOL     -0.693853
    160 O22       -10.6660   -5.4270   -1.8010 o         1 MOL     -0.693853
    161 H72        -9.4170   -0.5520   -1.6500 hn        1 MOL      0.271462
    162 H73       -10.4230   -2.1320   -0.5170 h1        1 MOL      0.106293
    163 H74        -7.7620   -3.2690    0.4220 hc        1 MOL     -0.072334
    164 H75        -8.3360   -3.2260   -1.2480 hc        1 MOL     -0.072334
    165 H76        -9.5140   -4.6600    1.1070 hc        1 MOL      0.042933
    166 H77        -8.6490   -5.4190   -0.1160 hc        1 MOL      0.042933
    167 N15       -10.0960   -0.3160    1.6400 n         1 MOL     -0.183160
    168 C54       -10.4810    0.2120    2.9720 c3        1 MOL     -0.292219
    169 H78        -9.6050    0.2330    3.6210 h1        1 MOL      0.124615
    170 H79       -10.8770    1.2210    2.8630 h1        1 MOL      0.124615
    171 H80       -11.2430   -0.4330    3.4120 h1        1 MOL      0.124615
    172 H81       -10.0250    0.3580    0.8890 hn        1 MOL      0.201849
    173 Ca1        -0.5640   -2.3520   -0.7290 Ca        1 MOL      1.808608
    174 O23         0.4300   -5.1540   -0.8500 oh        1 MOL     -0.845421
    175 H82         1.3510   -5.2750   -0.6250 ho        1 MOL      0.420444
    176 H83         0.2030   -5.9390   -1.3500 ho        1 MOL      0.420444
    177 O24         0.1390   -3.2360   -3.3760 oh        1 MOL     -0.845421
    178 H84         0.0180   -4.1630   -3.6220 ho        1 MOL      0.420444
    179 H85        -0.5320   -2.7650   -3.8770 ho        1 MOL      0.420444
    180 O25        -1.3450   -3.2850    1.6480 oh        1 MOL     -0.845421
    181 H86        -1.1190   -3.1890    2.5610 ho        1 MOL      0.420444
    182 H87        -2.0230   -3.9770    1.6310 ho        1 MOL      0.420444
    183 O26        -3.0290   -1.6610    0.0160 oh        1 MOL     -0.845421
    184 H88        -3.2660   -0.7840   -0.2770 ho        1 MOL      0.420444
    185 H89        -3.8580   -2.0550    0.3000 ho        1 MOL      0.420444
    186 O27        -2.3800   -3.8640   -1.7930 oh        1 MOL     -0.845421
    187 H90        -2.7370   -4.0510   -2.6530 ho        1 MOL      0.420444
    188 H91        -2.7250   -4.5540   -1.2330 ho        1 MOL      0.420444
@<TRIPOS>BOND
     1    1    2 1   
     2    1    4 1   
     3    1    5 1   
     4    1    6 1   
     5    2    3 2   
     6    2    7 1   
     7    7    8 1   
     8    7   15 1   
     9    8    9 1   
    10    8   11 1   
    11    8   16 1   
    12    9   10 2   
    13    9   19 1   
    14   11   12 1   
    15   11   17 1   
    16   11   18 1   
    17   12   13 1   
    18   12   14 1   
    19   19   20 1   
    20   19   28 1   
    21   20   21 1   
    22   20   23 1   
    23   20   29 1   
    24   21   22 2   
    25   21   41 1   
    26   23   24 1   
    27   23   30 1   
    28   23   31 1   
    29   24   25 1   
    30   24   32 1   
    31   24   33 1   
    32   25   26 1   
    33   25   34 1   
    34   25   35 1   
    35   26   27 1   
    36   26   36 1   
    37   26   37 1   
    38   27   38 1   
    39   27   39 1   
    40   27   40 1   
    41   41   42 1   
    42   41   49 1   
    43   42   43 1   
    44   42   45 1   
    45   42   50 1   
    46   43   44 2   
    47   43   53 1   
    48   45   46 1   
    49   45   51 1   
    50   45   52 1   
    51   46   47 1   
    52   46   48 1   
    53   53   54 1   
    54   53   57 1   
    55   54   55 1   
    56   54   58 1   
    57   54   59 1   
    58   55   56 2   
    59   55   60 1   
    60   60   61 1   
    61   60   68 1   
    62   61   62 1   
    63   61   64 1   
    64   61   69 1   
    65   62   63 2   
    66   62   74 1   
    67   64   65 1   
    68   64   70 1   
    69   64   71 1   
    70   65   66 1   
    71   65   67 2   
    72   66   72 1   
    73   66   73 1   
    74   74   75 1   
    75   74   78 1   
    76   75   76 1   
    77   75   79 1   
    78   75   80 1   
    79   76   77 2   
    80   76   81 1   
    81   81   82 1   
    82   81   93 1   
    83   82   83 1   
    84   82   85 1   
    85   82   94 1   
    86   83   84 2   
    87   83  102 1   
    88   85   86 1   
    89   85   95 1   
    90   85   96 1   
    91   86   87 ar  
    92   86   88 ar  
    93   87   89 ar  
    94   87   97 1   
    95   88   90 ar  
    96   88   98 1   
    97   89   91 ar  
    98   89   99 1   
    99   90   91 ar  
   100   90  100 1   
   101   91   92 1   
   102   92  101 1   
   103  102  103 1   
   104  102  110 1   
   105  103  104 1   
   106  103  106 1   
   107  103  111 1   
   108  104  105 2   
   109  104  121 1   
   110  106  107 1   
   111  106  108 1   
   112  106  112 1   
   113  107  109 1   
   114  107  113 1   
   115  107  114 1   
   116  108  115 1   
   117  108  116 1   
   118  108  117 1   
   119  109  118 1   
   120  109  119 1   
   121  109  120 1   
   122  121  122 1   
   123  121  127 1   
   124  122  123 1   
   125  122  125 1   
   126  122  128 1   
   127  123  124 2   
   128  123  132 1   
   129  125  126 1   
   130  125  129 1   
   131  125  130 1   
   132  126  131 1   
   133  132  133 1   
   134  132  137 1   
   135  133  134 1   
   136  133  136 1   
   137  133  138 1   
   138  134  135 2   
   139  134  142 1   
   140  136  139 1   
   141  136  140 1   
   142  136  141 1   
   143  142  143 1   
   144  142  147 1   
   145  143  144 1   
   146  143  146 1   
   147  143  148 1   
   148  144  145 2   
   149  144  152 1   
   150  146  149 1   
   151  146  150 1   
   152  146  151 1   
   153  152  153 1   
   154  152  161 1   
   155  153  154 1   
   156  153  156 1   
   157  153  162 1   
   158  154  155 2   
   159  154  167 1   
   160  156  157 1   
   161  156  163 1   
   162  156  164 1   
   163  157  158 1   
   164  157  165 1   
   165  157  166 1   
   166  158  159 1   
   167  158  160 1   
   168  167  168 1   
   169  167  172 1   
   170  168  169 1   
   171  168  170 1   
   172  168  171 1   
   173  174  175 1   
   174  174  176 1   
   175  177  178 1   
   176  177  179 1   
   177  180  181 1   
   178  180  182 1   
   179  183  184 1   
   180  183  185 1   
   181  186  187 1   
   182  186  188 1   
@<TRIPOS>SUBSTRUCTURE
     1 MOL         1 TEMP              0 ****  ****    0 ROOT
