@<TRIPOS>MOLECULE
MOL
  191   184     1     0     0
SMALL
resp


@<TRIPOS>ATOM
      1 C1          5.0660    1.2880    2.4760 c3        1 MOL     -0.127399
      2 C2          5.9210    1.4850    1.1670 c         1 MOL      0.552519
      3 O1          5.5150    1.0770    0.0750 o         1 MOL     -0.450039
      4 H1          5.7300    1.2390    3.3380 hc        1 MOL      0.020060
      5 H2          4.3810    2.1280    2.5920 hc        1 MOL      0.020060
      6 H3          4.4970    0.3620    2.4030 hc        1 MOL      0.020060
      7 N1          7.1350    2.0590    1.2140 n         1 MOL     -0.425474
      8 C3          8.0400    2.1980    0.1340 c3        1 MOL     -0.044808
      9 C4          8.4250    0.8520   -0.5310 c         1 MOL      0.549643
     10 O2          8.4060    0.7130   -1.7520 o         1 MOL     -0.488821
     11 C5          7.5860    3.3270   -0.8710 c3        1 MOL     -0.132265
     12 C6          7.1530    4.6820   -0.2560 c         1 MOL      0.677705
     13 O3          7.1600    4.8460    0.9840 o         1 MOL     -0.651645
     14 O4          6.8210    5.5860   -1.0800 o         1 MOL     -0.651645
     15 H4          7.5110    2.2970    2.1230 hn        1 MOL      0.286704
     16 H5          8.9780    2.5680    0.5680 h1        1 MOL      0.070845
     17 H6          6.7480    2.9150   -1.4270 hc        1 MOL      0.056710
     18 H7          8.3940    3.5670   -1.5600 hc        1 MOL      0.056710
     19 N2          8.6390   -0.2090    0.2910 n         1 MOL     -0.493413
     20 C7          8.8610   -1.5750   -0.1840 c3        1 MOL      0.045042
     21 C8          7.5550   -2.3610   -0.5390 c         1 MOL      0.446876
     22 O5          7.6750   -3.5300   -1.0100 o         1 MOL     -0.599336
     23 C9          9.6590   -2.4440    0.8460 c3        1 MOL     -0.091555
     24 C10         9.1230   -2.3960    2.2990 c3        1 MOL      0.099853
     25 C11        10.1770   -2.6780    3.3980 c3        1 MOL      0.054363
     26 C12         9.5370   -2.5030    4.7690 c3        1 MOL     -0.082583
     27 N3         10.5350   -2.8680    5.8280 n4        1 MOL     -0.130325
     28 H8          8.4910   -0.0430    1.2800 hn        1 MOL      0.243849
     29 H9          9.5050   -1.6460   -1.0600 h1        1 MOL      0.120761
     30 H10        10.6740   -2.0340    0.8030 hc        1 MOL      0.049637
     31 H11         9.7750   -3.4820    0.5290 hc        1 MOL      0.049637
     32 H12         8.2040   -2.9820    2.3160 hc        1 MOL     -0.038089
     33 H13         8.9290   -1.3360    2.4560 hc        1 MOL     -0.038089
     34 H14        11.0960   -2.1470    3.1790 hc        1 MOL      0.011970
     35 H15        10.6020   -3.6690    3.2270 hc        1 MOL      0.011970
     36 H16         8.6480   -3.1410    4.8390 hx        1 MOL      0.099065
     37 H17         9.2450   -1.4600    4.9210 hx        1 MOL      0.099065
     38 H18        10.7680   -3.8420    5.9400 hn        1 MOL      0.209340
     39 H19        11.3680   -2.3130    5.7190 hn        1 MOL      0.209340
     40 H20        10.1810   -2.6540    6.7520 hn        1 MOL      0.209340
     41 N4          6.4230   -1.7480   -0.5360 n         1 MOL     -0.106254
     42 C13         5.1380   -2.3690   -0.7890 c3        1 MOL     -0.029378
     43 C14         4.6550   -2.1670   -2.2750 c         1 MOL      0.503104
     44 O6          4.7080   -1.0310   -2.7590 o         1 MOL     -0.444110
     45 C15         3.9740   -1.7720    0.1380 c3        1 MOL     -0.054974
     46 C16         2.7550   -2.6750    0.1000 c         1 MOL      0.607741
     47 O7          2.6200   -3.6160    0.9780 o         1 MOL     -0.721582
     48 O8          2.0000   -2.5940   -0.8690 o         1 MOL     -0.721582
     49 H21         6.4910   -0.7650   -0.2890 hn        1 MOL      0.106493
     50 H22         5.1750   -3.4250   -0.5080 h1        1 MOL      0.074768
     51 H23         3.6990   -0.7560   -0.1440 hc        1 MOL      0.037118
     52 H24         4.5130   -1.7580    1.0800 hc        1 MOL      0.037118
     53 N5          4.1640   -3.1930   -2.9820 n         1 MOL     -0.410691
     54 C17         3.6400   -3.1160   -4.3500 c3        1 MOL     -0.092519
     55 C18         2.4040   -2.2390   -4.5830 c         1 MOL      0.414701
     56 O9          2.0940   -1.9110   -5.7500 o         1 MOL     -0.518936
     57 H25         4.2370   -4.1450   -2.6380 hn        1 MOL      0.291553
     58 H26         3.5240   -4.1100   -4.7980 h1        1 MOL      0.106122
     59 H27         4.3920   -2.6870   -5.0140 h1        1 MOL      0.106122
     60 N6          1.7880   -1.8230   -3.4910 n         1 MOL     -0.352588
     61 C19         0.7280   -0.8010   -3.5700 c3        1 MOL     -0.122462
     62 C20         1.2030    0.6380   -3.3590 c         1 MOL      0.612588
     63 O10         0.4610    1.5510   -3.7200 o         1 MOL     -0.553861
     64 C21        -0.3950   -1.0010   -2.5420 c3        1 MOL     -0.511051
     65 C22        -1.0140   -2.3640   -2.7060 c         1 MOL      0.823642
     66 N7         -1.3420   -2.9040   -3.9110 n         1 MOL     -0.788547
     67 O11        -1.2040   -3.1470   -1.7710 o         1 MOL     -0.709245
     68 H28         2.0760   -2.2010   -2.6020 hn        1 MOL      0.327056
     69 H29         0.3410   -0.8870   -4.5920 h1        1 MOL      0.122281
     70 H30        -1.1450   -0.2150   -2.5990 hc        1 MOL      0.201125
     71 H31         0.0530   -0.9610   -1.5480 hc        1 MOL      0.201125
     72 H32        -1.3630   -2.2880   -4.7040 hn        1 MOL      0.365664
     73 H33        -1.7280   -3.8280   -4.0260 hn        1 MOL      0.365664
     74 N8          2.4290    0.8840   -2.8880 n         1 MOL     -0.128559
     75 C23         2.9720    2.2360   -2.7220 c3        1 MOL     -0.167203
     76 C24         2.0680    3.2570   -1.9610 c         1 MOL      0.594582
     77 O12         2.0450    4.3650   -2.5120 o         1 MOL     -0.486768
     78 H34         3.0250    0.1600   -2.4970 hn        1 MOL      0.130751
     79 H35         3.2110    2.6150   -3.7180 h1        1 MOL      0.103964
     80 H36         3.9030    2.1860   -2.1710 h1        1 MOL      0.103964
     81 N9          1.4380    2.8630   -0.8520 n         1 MOL     -0.650057
     82 C25         0.5400    3.6150   -0.0590 c3        1 MOL      0.514423
     83 C26        -0.5070    2.6960    0.5840 c         1 MOL      0.385098
     84 O13        -0.2540    1.4990    0.6650 o         1 MOL     -0.483942
     85 C27         1.2810    4.3200    1.1500 c3        1 MOL     -0.222691
     86 C28         0.7270    5.6920    1.3390 ca        1 MOL      0.172816
     87 C29         0.8600    6.4990    0.2110 ca        1 MOL     -0.321348
     88 C30         0.1780    6.1560    2.4920 ca        1 MOL     -0.321348
     89 C31         0.5570    7.8980    0.3110 ca        1 MOL     -0.039538
     90 C32        -0.1920    7.5150    2.5380 ca        1 MOL     -0.039538
     91 C33        -0.1150    8.3610    1.4450 ca        1 MOL      0.074525
     92 O14        -0.3990    9.6760    1.5750 oh        1 MOL     -0.397633
     93 H37         1.6090    1.9290   -0.5040 hn        1 MOL      0.250984
     94 H38         0.0410    4.3630   -0.6820 h1        1 MOL     -0.005992
     95 H39         2.3600    4.4740    0.9920 hc        1 MOL      0.106012
     96 H40         1.1820    3.7740    2.0930 hc        1 MOL      0.106012
     97 H41         1.3580    6.1660   -0.6870 ha        1 MOL      0.164225
     98 H42         0.1710    5.5680    3.4010 ha        1 MOL      0.164225
     99 H43         0.7580    8.5670   -0.5060 ha        1 MOL      0.107619
    100 H44        -0.5630    7.9410    3.4620 ha        1 MOL      0.107619
    101 H45        -0.5070    9.9570    2.4850 ho        1 MOL      0.321929
    102 N10        -1.6750    3.2240    0.9360 n         1 MOL     -0.446018
    103 C34        -2.8820    2.4250    1.3060 c3        1 MOL      0.179577
    104 C35        -3.9550    2.4510    0.2720 c         1 MOL      0.585930
    105 O15        -4.4400    1.3930   -0.1300 o         1 MOL     -0.477537
    106 C36        -3.3390    2.7060    2.7870 c3        1 MOL     -0.016709
    107 C37        -2.1590    2.8170    3.7310 c3        1 MOL      0.068604
    108 C38        -4.3910    1.7120    3.2770 c3        1 MOL     -0.365946
    109 C39        -2.5180    2.8080    5.2300 c3        1 MOL      0.018228
    110 H46        -1.7180    4.2220    1.0740 hn        1 MOL      0.205173
    111 H47        -2.5820    1.3820    1.1980 h1        1 MOL      0.005001
    112 H48        -3.8560    3.6730    2.7290 hc        1 MOL      0.021849
    113 H49        -1.7290    3.8040    3.5470 hc        1 MOL     -0.036135
    114 H50        -1.4270    2.0230    3.5820 hc        1 MOL     -0.036135
    115 H51        -4.9880    2.2310    4.0180 hc        1 MOL      0.111202
    116 H52        -5.1020    1.5530    2.4520 hc        1 MOL      0.111202
    117 H53        -3.9540    0.7640    3.5640 hc        1 MOL      0.111202
    118 H54        -3.0080    1.8760    5.5330 hc        1 MOL     -0.005406
    119 H55        -1.6360    2.9470    5.8490 hc        1 MOL     -0.005406
    120 H56        -3.1800    3.6530    5.4240 hc        1 MOL     -0.005406
    121 N11        -4.2540    3.6350   -0.3260 n         1 MOL     -0.538049
    122 C40        -4.9670    3.9180   -1.5630 c3        1 MOL      0.203086
    123 C41        -6.2880    3.0860   -1.7250 c         1 MOL      0.306399
    124 O16        -6.4690    2.4470   -2.7230 o         1 MOL     -0.447218
    125 C42        -5.2980    5.3710   -1.6160 c3        1 MOL      0.155533
    126 O17        -4.0750    6.0740   -1.5730 oh        1 MOL     -0.557539
    127 H57        -3.6960    4.3990    0.0280 hn        1 MOL      0.242404
    128 H58        -4.3700    3.7290   -2.4570 h1        1 MOL      0.087488
    129 H59        -5.9810    5.6630   -0.8090 h1        1 MOL      0.012873
    130 H60        -5.7740    5.5870   -2.5700 h1        1 MOL      0.012873
    131 H61        -4.2870    6.9700   -1.2750 ho        1 MOL      0.392502
    132 N12        -7.1310    3.1690   -0.6630 n         1 MOL     -0.362708
    133 C43        -8.5510    2.7580   -0.5770 c3        1 MOL      0.362417
    134 C44        -8.8370    1.3120   -0.9940 c         1 MOL      0.433572
    135 O18        -9.9290    1.1140   -1.5390 o         1 MOL     -0.517092
    136 C45        -9.3710    3.9180   -1.2600 c3        1 MOL     -0.519840
    137 H62        -6.7890    3.7250    0.1080 hn        1 MOL      0.225008
    138 H63        -8.6940    2.8160    0.4940 h1        1 MOL     -0.005531
    139 H64        -9.0680    4.0670   -2.2960 hc        1 MOL      0.139926
    140 H65       -10.3880    3.5280   -1.1790 hc        1 MOL      0.139926
    141 H66        -9.3350    4.8320   -0.6660 hc        1 MOL      0.139926
    142 N13        -7.9310    0.4170   -0.6630 n         1 MOL     -0.543053
    143 C46        -8.1780   -0.9820   -1.0300 c3        1 MOL      0.521400
    144 C47        -7.7620   -1.9870    0.0660 c         1 MOL      0.369589
    145 O19        -6.8510   -1.6330    0.8490 o         1 MOL     -0.512424
    146 C48        -7.3610   -1.2930   -2.2870 c3        1 MOL     -0.329066
    147 H67        -7.0780    0.6910   -0.2110 hn        1 MOL      0.245628
    148 H68        -9.2250   -1.1520   -1.2890 h1        1 MOL     -0.076515
    149 H69        -7.5320   -2.2930   -2.6820 hc        1 MOL      0.093247
    150 H70        -7.5700   -0.5600   -3.0730 hc        1 MOL      0.093247
    151 H71        -6.3090   -1.1960   -2.0250 hc        1 MOL      0.093247
    152 N14        -8.3970   -3.1210    0.2120 n         1 MOL     -0.429985
    153 C49        -8.2690   -4.0370    1.3500 c3        1 MOL      0.048439
    154 C50        -8.2060   -3.4700    2.7600 c         1 MOL      0.411292
    155 O20        -7.5530   -4.1550    3.5530 o         1 MOL     -0.507657
    156 C51        -7.2430   -5.1310    0.9730 c3        1 MOL      0.031353
    157 C52        -5.7390   -4.8410    1.0070 c3        1 MOL     -0.227780
    158 C53        -4.9530   -6.0860    0.5860 c         1 MOL      0.844437
    159 O21        -4.2010   -6.0380   -0.4190 o         1 MOL     -0.745589
    160 O22        -4.8840   -7.1400    1.2360 o         1 MOL     -0.745589
    161 H72        -9.1280   -3.3650   -0.4370 hn        1 MOL      0.287886
    162 H73        -9.2320   -4.5520    1.4560 h1        1 MOL      0.047016
    163 H74        -7.4110   -5.4800   -0.0510 hc        1 MOL      0.003592
    164 H75        -7.4710   -5.9480    1.6580 hc        1 MOL      0.003592
    165 H76        -5.2970   -4.4010    1.8900 hc        1 MOL      0.068016
    166 H77        -5.5620   -4.1720    0.1610 hc        1 MOL      0.068016
    167 N15        -8.7200   -2.2900    3.0150 n         1 MOL     -0.168313
    168 C54        -8.6870   -1.5680    4.2960 c3        1 MOL     -0.093149
    169 H78        -7.7750   -1.8250    4.8340 h1        1 MOL      0.068288
    170 H79        -8.7080   -0.4940    4.1100 h1        1 MOL      0.068288
    171 H80        -9.5530   -1.8500    4.8950 h1        1 MOL      0.068288
    172 H81        -9.2130   -1.9020    2.2160 hn        1 MOL      0.163471
    173 Ca1         0.1930   -4.1190    0.2470 Ca        1 MOL      1.818189
    174 O23         0.8720   -6.5680    1.2470 oh        1 MOL     -0.832172
    175 H82         0.5770   -7.4280    0.9450 ho        1 MOL      0.407536
    176 H83         1.3610   -6.7480    2.0480 ho        1 MOL      0.407536
    177 O24        -0.2460   -1.5730    1.2160 oh        1 MOL     -0.832172
    178 H84        -0.2720   -0.6150    1.2510 ho        1 MOL      0.407536
    179 H85        -1.0830   -1.8480    1.5980 ho        1 MOL      0.407536
    180 O25        -1.5450   -5.9930   -0.5970 oh        1 MOL     -0.832172
    181 H86        -2.4700   -6.2060   -0.4740 ho        1 MOL      0.407536
    182 H87        -1.3080   -6.3850   -1.4300 ho        1 MOL      0.407536
    183 O26        -2.2540   -3.5860    1.4390 oh        1 MOL     -0.832172
    184 H88        -2.4150   -4.2610    2.1030 ho        1 MOL      0.407536
    185 H89        -3.0050   -3.0010    1.5040 ho        1 MOL      0.407536
    186 O27         0.1580   -4.0320    3.1080 oh        1 MOL     -0.832172
    187 H90        -0.2660   -4.4340    3.8670 ho        1 MOL      0.407536
    188 H91         1.0300   -3.7810    3.4250 ho        1 MOL      0.407536
    189 O28         1.2850   -5.4890   -1.7200 oh        1 MOL     -0.832172
    190 H92         1.7430   -6.3260   -1.6630 ho        1 MOL      0.407536
    191 H93         0.8550   -5.5020   -2.5690 ho        1 MOL      0.407536
@<TRIPOS>BOND
     1    1    2 1   
     2    1    4 1   
     3    1    5 1   
     4    1    6 1   
     5    2    3 2   
     6    2    7 1   
     7    7    8 1   
     8    7   15 1   
     9    8    9 1   
    10    8   11 1   
    11    8   16 1   
    12    9   10 2   
    13    9   19 1   
    14   11   12 1   
    15   11   17 1   
    16   11   18 1   
    17   12   13 1   
    18   12   14 1   
    19   19   20 1   
    20   19   28 1   
    21   20   21 1   
    22   20   23 1   
    23   20   29 1   
    24   21   22 2   
    25   21   41 1   
    26   23   24 1   
    27   23   30 1   
    28   23   31 1   
    29   24   25 1   
    30   24   32 1   
    31   24   33 1   
    32   25   26 1   
    33   25   34 1   
    34   25   35 1   
    35   26   27 1   
    36   26   36 1   
    37   26   37 1   
    38   27   38 1   
    39   27   39 1   
    40   27   40 1   
    41   41   42 1   
    42   41   49 1   
    43   42   43 1   
    44   42   45 1   
    45   42   50 1   
    46   43   44 2   
    47   43   53 1   
    48   45   46 1   
    49   45   51 1   
    50   45   52 1   
    51   46   47 1   
    52   46   48 1   
    53   53   54 1   
    54   53   57 1   
    55   54   55 1   
    56   54   58 1   
    57   54   59 1   
    58   55   56 2   
    59   55   60 1   
    60   60   61 1   
    61   60   68 1   
    62   61   62 1   
    63   61   64 1   
    64   61   69 1   
    65   62   63 2   
    66   62   74 1   
    67   64   65 1   
    68   64   70 1   
    69   64   71 1   
    70   65   66 1   
    71   65   67 2   
    72   66   72 1   
    73   66   73 1   
    74   74   75 1   
    75   74   78 1   
    76   75   76 1   
    77   75   79 1   
    78   75   80 1   
    79   76   77 2   
    80   76   81 1   
    81   81   82 1   
    82   81   93 1   
    83   82   83 1   
    84   82   85 1   
    85   82   94 1   
    86   83   84 2   
    87   83  102 1   
    88   85   86 1   
    89   85   95 1   
    90   85   96 1   
    91   86   87 ar  
    92   86   88 ar  
    93   87   89 ar  
    94   87   97 1   
    95   88   90 ar  
    96   88   98 1   
    97   89   91 ar  
    98   89   99 1   
    99   90   91 ar  
   100   90  100 1   
   101   91   92 1   
   102   92  101 1   
   103  102  103 1   
   104  102  110 1   
   105  103  104 1   
   106  103  106 1   
   107  103  111 1   
   108  104  105 2   
   109  104  121 1   
   110  106  107 1   
   111  106  108 1   
   112  106  112 1   
   113  107  109 1   
   114  107  113 1   
   115  107  114 1   
   116  108  115 1   
   117  108  116 1   
   118  108  117 1   
   119  109  118 1   
   120  109  119 1   
   121  109  120 1   
   122  121  122 1   
   123  121  127 1   
   124  122  123 1   
   125  122  125 1   
   126  122  128 1   
   127  123  124 2   
   128  123  132 1   
   129  125  126 1   
   130  125  129 1   
   131  125  130 1   
   132  126  131 1   
   133  132  133 1   
   134  132  137 1   
   135  133  134 1   
   136  133  136 1   
   137  133  138 1   
   138  134  135 2   
   139  134  142 1   
   140  136  139 1   
   141  136  140 1   
   142  136  141 1   
   143  142  143 1   
   144  142  147 1   
   145  143  144 1   
   146  143  146 1   
   147  143  148 1   
   148  144  145 2   
   149  144  152 1   
   150  146  149 1   
   151  146  150 1   
   152  146  151 1   
   153  152  153 1   
   154  152  161 1   
   155  153  154 1   
   156  153  156 1   
   157  153  162 1   
   158  154  155 2   
   159  154  167 1   
   160  156  157 1   
   161  156  163 1   
   162  156  164 1   
   163  157  158 1   
   164  157  165 1   
   165  157  166 1   
   166  158  159 1   
   167  158  160 1   
   168  167  168 1   
   169  167  172 1   
   170  168  169 1   
   171  168  170 1   
   172  168  171 1   
   173  174  175 1   
   174  174  176 1   
   175  177  178 1   
   176  177  179 1   
   177  180  181 1   
   178  180  182 1   
   179  183  184 1   
   180  183  185 1   
   181  186  187 1   
   182  186  188 1   
   183  189  190 1   
   184  189  191 1   
@<TRIPOS>SUBSTRUCTURE
     1 MOL         1 TEMP              0 ****  ****    0 ROOT
