@<TRIPOS>MOLECULE
MOL
  195   189     1     0     0
SMALL
resp


@<TRIPOS>ATOM
      1 C1         -1.4410    4.6820    2.2590 c3        1 MOL     -0.229103
      2 C2         -2.3890    4.4430    1.0840 c         1 MOL      0.836946
      3 O1         -2.9900    3.3780    0.9940 o         1 MOL     -0.546851
      4 H1         -0.4160    4.7280    1.8930 hc        1 MOL      0.024863
      5 H2         -1.6960    5.6230    2.7450 hc        1 MOL      0.024863
      6 H3         -1.5350    3.8660    2.9740 hc        1 MOL      0.024863
      7 N1         -2.4230    5.3490    0.0620 n         1 MOL     -0.682389
      8 C3         -3.1770    5.2580   -1.2630 c3        1 MOL      0.251285
      9 C4         -4.7040    5.0120   -1.1460 c         1 MOL      0.522503
     10 O2         -5.3390    4.6260   -2.1440 o         1 MOL     -0.492064
     11 C5         -2.4680    4.2460   -2.2260 c3        1 MOL     -0.719132
     12 C6         -0.9790    4.4660   -2.4640 c         1 MOL      0.883959
     13 O3         -0.1780    3.8470   -1.7650 o         1 MOL     -0.648624
     14 O4         -0.5780    5.0910   -3.4450 o         1 MOL     -0.648624
     15 H4         -1.8230    6.1460    0.1550 hn        1 MOL      0.298150
     16 H5         -3.1590    6.2500   -1.7050 h1        1 MOL      0.034859
     17 H6         -2.9960    4.3050   -3.1780 hc        1 MOL      0.179320
     18 H7         -2.5920    3.2630   -1.7800 hc        1 MOL      0.179320
     19 N2         -5.2710    5.2870   -0.0130 n         1 MOL     -0.496379
     20 C7         -6.4540    4.5410    0.3960 c3        1 MOL      0.154567
     21 C8         -7.6980    4.7420   -0.5460 c         1 MOL      0.403599
     22 O5         -7.8330    5.7930   -1.0960 o         1 MOL     -0.552145
     23 C9         -6.8480    4.8750    1.8810 c3        1 MOL      0.079284
     24 C10        -7.1860    6.3350    2.3100 c3        1 MOL      0.247497
     25 C11        -5.6860    4.4280    2.7600 c3        1 MOL     -0.082569
     26 C12        -8.6940    6.6960    2.0370 c3        1 MOL     -0.072632
     27 H8         -4.7650    5.8280    0.6780 hn        1 MOL      0.244454
     28 H9         -6.2760    3.4770    0.2430 h1        1 MOL      0.098133
     29 H10        -7.7280    4.2410    1.9880 hc        1 MOL      0.046991
     30 H11        -6.5500    7.0710    1.8230 hc        1 MOL     -0.102437
     31 H12        -6.9910    6.4050    3.3800 hc        1 MOL     -0.102437
     32 H13        -5.2070    3.5370    2.3660 hc        1 MOL     -0.001367
     33 H14        -4.9350    5.2280    2.7470 hc        1 MOL     -0.001367
     34 H15        -6.0160    4.1970    3.7720 hc        1 MOL     -0.001367
     35 H16        -8.7680    7.0320    1.0040 hc        1 MOL     -0.000070
     36 H17        -9.2380    5.8160    2.3490 hc        1 MOL     -0.000070
     37 H18        -8.9280    7.5740    2.6490 hc        1 MOL     -0.000070
     38 N3         -8.5810    3.7870   -0.7070 n         1 MOL     -0.379803
     39 C13        -8.5350    2.3800   -0.2280 c3        1 MOL     -0.041971
     40 C14        -7.4640    1.4850   -0.9010 c         1 MOL      0.540233
     41 O6         -7.0310    0.5890   -0.1970 o         1 MOL     -0.538252
     42 C15        -9.9310    1.7940   -0.3710 c3        1 MOL     -0.185004
     43 C16       -10.9410    2.6680    0.4350 c         1 MOL      0.688051
     44 O7        -12.0120    3.0430   -0.0950 o         1 MOL     -0.668059
     45 O8        -10.6750    2.9530    1.6190 o         1 MOL     -0.668059
     46 H19        -9.3960    4.0020   -1.2610 hn        1 MOL      0.284608
     47 H20        -8.2620    2.3800    0.8300 h1        1 MOL      0.065174
     48 H21        -9.8500    0.7840    0.0120 hc        1 MOL      0.044726
     49 H22       -10.3240    1.6230   -1.3710 hc        1 MOL      0.044726
     50 N4         -7.0250    1.7340   -2.1390 n         1 MOL     -0.346407
     51 C17        -5.8780    1.0510   -2.8070 c3        1 MOL     -0.219422
     52 C18        -6.0180   -0.4150   -3.0190 c         1 MOL      0.727592
     53 O9         -7.0510   -0.7630   -3.4200 o         1 MOL     -0.596108
     54 H23        -7.4980    2.4080   -2.7130 hn        1 MOL      0.280352
     55 H24        -5.0080    1.1650   -2.1580 h1        1 MOL      0.115941
     56 H25        -5.5960    1.5090   -3.7520 h1        1 MOL      0.115941
     57 N5         -4.9450   -1.2140   -2.8200 n         1 MOL     -0.585433
     58 C19        -4.9190   -2.6900   -3.1650 c3        1 MOL      0.114587
     59 C20        -5.1860   -3.7080   -2.0450 c         1 MOL      0.350036
     60 O10        -5.2640   -4.9430   -2.2680 o         1 MOL     -0.529685
     61 C21        -3.5090   -2.9760   -3.7320 c3        1 MOL     -0.324224
     62 C22        -2.3830   -2.6190   -2.7650 c         1 MOL      0.762525
     63 O11        -1.8200   -1.5240   -2.8580 o         1 MOL     -0.668498
     64 O12        -2.2120   -3.3420   -1.7780 o         1 MOL     -0.668498
     65 H26        -4.0960   -0.8610   -2.4120 hn        1 MOL      0.332376
     66 H27        -5.6190   -2.8260   -3.9900 h1        1 MOL      0.108302
     67 H28        -3.4160   -2.4260   -4.6770 hc        1 MOL      0.053266
     68 H29        -3.4580   -4.0530   -3.8750 hc        1 MOL      0.053266
     69 N6         -5.4530   -3.1990   -0.7940 n         1 MOL     -0.244123
     70 C23        -5.7430   -3.9410    0.4550 c3        1 MOL     -0.153441
     71 C24        -4.8580   -5.0760    0.8940 c         1 MOL      0.483065
     72 O13        -5.2560   -5.7370    1.8300 o         1 MOL     -0.580337
     73 H30        -5.3630   -2.1880   -0.7280 hn        1 MOL      0.253446
     74 H31        -6.6980   -4.4210    0.2190 h1        1 MOL      0.109791
     75 H32        -5.9800   -3.2280    1.2400 h1        1 MOL      0.109791
     76 N7         -3.7230   -5.2800    0.2520 n         1 MOL     -0.044167
     77 C25        -2.6790   -6.2080    0.6650 c3        1 MOL     -0.226232
     78 C26        -2.1790   -6.1130    2.1710 c         1 MOL      0.546588
     79 O14        -1.8070   -7.1310    2.7740 o         1 MOL     -0.510553
     80 C27        -3.1560   -7.6470    0.2210 c3        1 MOL      0.185118
     81 C28        -3.3730   -7.7930   -1.3320 c3        1 MOL     -0.352901
     82 C29        -2.9390   -9.1880   -1.7690 c         1 MOL      0.577775
     83 N8         -3.4090   -9.5870   -2.9150 n         1 MOL     -0.670177
     84 O15        -2.4900  -10.0760   -1.0320 o         1 MOL     -0.539549
     85 H33        -3.4460   -4.7030   -0.5250 hn        1 MOL      0.155705
     86 H34        -1.8230   -5.9920    0.0330 h1        1 MOL      0.117688
     87 H35        -4.0640   -7.9440    0.7430 hc        1 MOL      0.004052
     88 H36        -2.4400   -8.3550    0.6420 hc        1 MOL      0.004052
     89 H37        -2.8050   -7.0550   -1.9040 hc        1 MOL      0.119206
     90 H38        -4.4330   -7.6400   -1.5280 hc        1 MOL      0.119206
     91 H39        -3.8640   -8.8530   -3.4370 hn        1 MOL      0.311483
     92 H40        -3.1550  -10.4630   -3.3420 hn        1 MOL      0.311483
     93 N9         -2.0960   -4.8740    2.7330 n         1 MOL     -0.489407
     94 C30        -1.7560   -4.5190    4.1550 c3        1 MOL      0.052517
     95 C31        -0.4820   -3.6860    4.2050 c         1 MOL      0.620174
     96 O16         0.0730   -3.7930    5.2770 o         1 MOL     -0.599831
     97 C32        -2.9580   -3.8660    4.9010 c3        1 MOL      0.357265
     98 C33        -3.3950   -2.6180    4.1710 c3        1 MOL     -0.356846
     99 C34        -4.1270   -4.8360    5.1880 c3        1 MOL     -0.356846
    100 H41        -2.3800   -4.1180    2.1220 hn        1 MOL      0.220695
    101 H42        -1.5040   -5.4350    4.6970 h1        1 MOL      0.050098
    102 H43        -2.5650   -3.5000    5.8520 hc        1 MOL     -0.055173
    103 H44        -2.5660   -1.9190    4.2460 hc        1 MOL      0.084701
    104 H45        -3.5860   -2.7500    3.1110 hc        1 MOL      0.084701
    105 H46        -4.2130   -2.1170    4.6870 hc        1 MOL      0.084701
    106 H47        -4.5010   -5.2100    4.2350 hc        1 MOL      0.084701
    107 H48        -3.8210   -5.6010    5.9060 hc        1 MOL      0.084701
    108 H49        -4.8800   -4.1890    5.6420 hc        1 MOL      0.084701
    109 N10        -0.1970   -2.8800    3.1990 n         1 MOL     -0.640603
    110 C35         1.0810   -2.1960    3.1220 c3        1 MOL      0.489867
    111 C36         1.6790   -2.3240    1.6560 c         1 MOL      0.345509
    112 O17         0.9070   -2.4340    0.6620 o         1 MOL     -0.437294
    113 C37         0.9490   -0.7470    3.6290 c3        1 MOL     -0.331488
    114 C38         0.1090    0.1870    2.7420 c         1 MOL      0.712047
    115 N11         0.6610    0.9450    1.8070 n         1 MOL     -0.773519
    116 O18        -1.1100    0.2730    2.9090 o         1 MOL     -0.542071
    117 H50        -0.7680   -2.8520    2.3730 hn        1 MOL      0.341911
    118 H51         1.7920   -2.6710    3.7920 h1        1 MOL      0.013401
    119 H52         1.9650   -0.3570    3.6560 hc        1 MOL      0.055271
    120 H53         0.5000   -0.7560    4.6160 hc        1 MOL      0.055271
    121 H54         1.6410    0.7950    1.6150 hn        1 MOL      0.369736
    122 H55         0.1250    1.5570    1.2150 hn        1 MOL      0.369736
    123 N12         3.0560   -2.2810    1.4620 n         1 MOL     -0.522615
    124 C39         3.9140   -2.3940    0.2590 c3        1 MOL      0.243393
    125 C40         5.3640   -2.4370    0.7000 c         1 MOL      0.538364
    126 O19         5.6320   -2.2660    1.8740 o         1 MOL     -0.544942
    127 C41         3.6780   -1.3740   -0.8010 c3        1 MOL     -0.088937
    128 C42         3.8730   -1.8250   -2.3220 ca        1 MOL      0.079078
    129 C43         2.8890   -2.6600   -2.8170 ca        1 MOL     -0.188108
    130 C44         5.0440   -1.5830   -3.0530 ca        1 MOL     -0.188108
    131 C45         2.9360   -3.0900   -4.1570 ca        1 MOL     -0.190855
    132 C46         5.1350   -2.1390   -4.3400 ca        1 MOL     -0.190855
    133 C47         4.1300   -2.9160   -4.9010 ca        1 MOL      0.274954
    134 O20         4.1430   -3.4060   -6.1540 oh        1 MOL     -0.507626
    135 H56         3.5820   -2.0200    2.2860 hn        1 MOL      0.240012
    136 H57         3.7420   -3.3530   -0.2250 h1        1 MOL      0.045094
    137 H58         4.1380   -0.4060   -0.6500 hc        1 MOL      0.050994
    138 H59         2.6610   -1.0390   -0.6010 hc        1 MOL      0.050994
    139 H60         2.0280   -2.9350   -2.2110 ha        1 MOL      0.158076
    140 H61         5.8290   -0.9590   -2.6630 ha        1 MOL      0.158076
    141 H62         2.0820   -3.6510   -4.5140 ha        1 MOL      0.135797
    142 H63         5.9550   -1.8540   -4.9870 ha        1 MOL      0.135797
    143 H64         3.4090   -4.0140   -6.2710 ho        1 MOL      0.379675
    144 N13         6.3170   -2.5790   -0.2710 n         1 MOL     -0.611905
    145 C48         7.8040   -2.4680   -0.1210 c3        1 MOL      0.540319
    146 C49         8.3840   -1.3430   -0.9580 c         1 MOL      0.381701
    147 O21         8.9160   -1.4830   -2.0160 o         1 MOL     -0.518724
    148 C50         8.4450   -3.8500   -0.4770 c3        1 MOL     -0.057672
    149 C51         9.9680   -3.9720   -0.0660 c3        1 MOL     -0.237244
    150 C52        10.5390   -5.3230   -0.6000 c         1 MOL      0.733174
    151 O22        11.7670   -5.4890   -0.4790 o         1 MOL     -0.667584
    152 O23         9.9060   -6.1680   -1.2800 o         1 MOL     -0.667584
    153 H65         5.9310   -2.6430   -1.2040 hn        1 MOL      0.200169
    154 H66         7.9900   -2.1500    0.9070 h1        1 MOL     -0.023234
    155 H67         8.3350   -3.9980   -1.5510 hc        1 MOL      0.016714
    156 H68         7.9080   -4.6150    0.0750 hc        1 MOL      0.016714
    157 H69        10.1250   -3.9390    1.0080 hc        1 MOL      0.040537
    158 H70        10.5070   -3.0990   -0.4210 hc        1 MOL      0.040537
    159 N14         8.0830   -0.0590   -0.6040 n         1 MOL      0.024464
    160 C53         7.3940    0.5710    0.5610 c3        1 MOL     -1.426520
    161 C54         8.0850    0.2090    1.8930 c         1 MOL      0.798911
    162 O24         9.2290   -0.2200    1.8460 o         1 MOL     -0.543101
    163 C55         7.4970    2.0920    0.3200 c3        1 MOL      0.882366
    164 C56         7.0520    2.9400    1.4970 c3        1 MOL     -0.146069
    165 C57         6.7360    4.4070    1.0250 c         1 MOL      0.186522
    166 O25         7.5140    5.3680    1.2490 o         1 MOL     -0.537126
    167 O26         5.7260    4.6000    0.2670 o         1 MOL     -0.537126
    168 H71         8.3660    0.5950   -1.3080 hn        1 MOL      0.142794
    169 H72         6.3490    0.2960    0.6690 h1        1 MOL      0.315286
    170 H73         6.8890    2.3990   -0.5360 hc        1 MOL     -0.033487
    171 H74         8.5200    2.3540    0.0430 hc        1 MOL     -0.033487
    172 H75         7.8960    3.0180    2.1770 hc        1 MOL     -0.005617
    173 H76         6.1120    2.5160    1.8490 hc        1 MOL     -0.005617
    174 N15         7.3680    0.4210    3.0120 n         1 MOL     -0.214847
    175 C58         7.9280    0.2080    4.3190 c3        1 MOL     -0.233887
    176 H77         9.0010    0.3940    4.2900 h1        1 MOL      0.089494
    177 H78         7.4610    0.8890    5.0300 h1        1 MOL      0.089494
    178 H79         7.7460   -0.8210    4.6290 h1        1 MOL      0.089494
    179 H80         6.4110    0.7180    2.9150 hn        1 MOL      0.268882
    180 Ca1         6.1840    7.2610   -0.0070 Ca        1 MOL      1.443885
    181 O27         8.6600    8.0290   -1.1090 oh        1 MOL     -0.748258
    182 H81         8.9210    8.5460   -1.8660 ho        1 MOL      0.338877
    183 H82         9.4760    7.6220   -0.8030 ho        1 MOL      0.338877
    184 O28         3.7860    7.1130   -1.0790 oh        1 MOL     -0.748258
    185 H83         3.1580    7.6800   -1.5290 ho        1 MOL      0.338877
    186 H84         3.3500    6.2540   -1.0500 ho        1 MOL      0.338877
    187 O29         5.9180    9.7330   -1.1070 oh        1 MOL     -0.748258
    188 H85         6.3740   10.3680   -0.5500 ho        1 MOL      0.338877
    189 H86         5.6330   10.2350   -1.8620 ho        1 MOL      0.338877
    190 O30         7.6730    8.3590    2.1100 oh        1 MOL     -0.748258
    191 H87         8.4830    8.4260    2.6090 ho        1 MOL      0.338877
    192 H88         6.9960    8.6790    2.7060 ho        1 MOL      0.338877
    193 O31         6.6430    6.1210   -2.4830 oh        1 MOL     -0.748258
    194 H89         6.3920    6.3470   -3.3740 ho        1 MOL      0.338877
    195 H90         7.3400    5.4660   -2.5970 ho        1 MOL      0.338877
@<TRIPOS>BOND
     1    1    2 1   
     2    1    4 1   
     3    1    5 1   
     4    1    6 1   
     5    2    3 2   
     6    2    7 1   
     7    7    8 1   
     8    7   15 1   
     9    8    9 1   
    10    8   11 1   
    11    8   16 1   
    12    9   10 2   
    13    9   19 1   
    14   11   12 1   
    15   11   17 1   
    16   11   18 1   
    17   12   13 1   
    18   12   14 1   
    19   19   20 1   
    20   19   27 1   
    21   20   21 1   
    22   20   23 1   
    23   20   28 1   
    24   21   22 2   
    25   21   38 1   
    26   23   24 1   
    27   23   25 1   
    28   23   29 1   
    29   24   26 1   
    30   24   30 1   
    31   24   31 1   
    32   25   32 1   
    33   25   33 1   
    34   25   34 1   
    35   26   35 1   
    36   26   36 1   
    37   26   37 1   
    38   38   39 1   
    39   38   46 1   
    40   39   40 1   
    41   39   42 1   
    42   39   47 1   
    43   40   41 2   
    44   40   50 1   
    45   42   43 1   
    46   42   48 1   
    47   42   49 1   
    48   43   44 1   
    49   43   45 1   
    50   50   51 1   
    51   50   54 1   
    52   51   52 1   
    53   51   55 1   
    54   51   56 1   
    55   52   53 2   
    56   52   57 1   
    57   57   58 1   
    58   57   65 1   
    59   58   59 1   
    60   58   61 1   
    61   58   66 1   
    62   59   60 2   
    63   59   69 1   
    64   61   62 1   
    65   61   67 1   
    66   61   68 1   
    67   62   63 1   
    68   62   64 1   
    69   69   70 1   
    70   69   73 1   
    71   70   71 1   
    72   70   74 1   
    73   70   75 1   
    74   71   72 2   
    75   71   76 1   
    76   76   77 1   
    77   76   85 1   
    78   77   78 1   
    79   77   80 1   
    80   77   86 1   
    81   78   79 2   
    82   78   93 1   
    83   80   81 1   
    84   80   87 1   
    85   80   88 1   
    86   81   82 1   
    87   81   89 1   
    88   81   90 1   
    89   82   83 1   
    90   82   84 2   
    91   83   91 1   
    92   83   92 1   
    93   93   94 1   
    94   93  100 1   
    95   94   95 1   
    96   94   97 1   
    97   94  101 1   
    98   95   96 2   
    99   95  109 1   
   100   97   98 1   
   101   97   99 1   
   102   97  102 1   
   103   98  103 1   
   104   98  104 1   
   105   98  105 1   
   106   99  106 1   
   107   99  107 1   
   108   99  108 1   
   109  109  110 1   
   110  109  117 1   
   111  110  111 1   
   112  110  113 1   
   113  110  118 1   
   114  111  112 2   
   115  111  123 1   
   116  113  114 1   
   117  113  119 1   
   118  113  120 1   
   119  114  115 1   
   120  114  116 2   
   121  115  121 1   
   122  115  122 1   
   123  123  124 1   
   124  123  135 1   
   125  124  125 1   
   126  124  127 1   
   127  124  136 1   
   128  125  126 2   
   129  125  144 1   
   130  127  128 1   
   131  127  137 1   
   132  127  138 1   
   133  128  129 ar  
   134  128  130 ar  
   135  129  131 ar  
   136  129  139 1   
   137  130  132 ar  
   138  130  140 1   
   139  131  133 ar  
   140  131  141 1   
   141  132  133 ar  
   142  132  142 1   
   143  133  134 1   
   144  134  143 1   
   145  144  145 1   
   146  144  153 1   
   147  145  146 1   
   148  145  148 1   
   149  145  154 1   
   150  146  147 2   
   151  146  159 1   
   152  148  149 1   
   153  148  155 1   
   154  148  156 1   
   155  149  150 1   
   156  149  157 1   
   157  149  158 1   
   158  150  151 1   
   159  150  152 1   
   160  159  160 1   
   161  159  168 1   
   162  160  161 1   
   163  160  163 1   
   164  160  169 1   
   165  161  162 2   
   166  161  174 1   
   167  163  164 1   
   168  163  170 1   
   169  163  171 1   
   170  164  165 1   
   171  164  172 1   
   172  164  173 1   
   173  165  166 1   
   174  165  167 1   
   175  174  175 1   
   176  174  179 1   
   177  175  176 1   
   178  175  177 1   
   179  175  178 1   
   180  181  182 1   
   181  181  183 1   
   182  184  185 1   
   183  184  186 1   
   184  187  188 1   
   185  187  189 1   
   186  190  191 1   
   187  190  192 1   
   188  193  194 1   
   189  193  195 1   
@<TRIPOS>SUBSTRUCTURE
     1 MOL         1 TEMP              0 ****  ****    0 ROOT
