@<TRIPOS>MOLECULE
MOL
  185   180     1     0     0
SMALL
resp


@<TRIPOS>ATOM
      1 C1         -5.9750    0.6430   -3.8040 c3        1 MOL     -0.411119
      2 C2         -6.5720    0.8240   -2.4310 c         1 MOL      0.500827
      3 O1         -5.7980    0.6930   -1.4410 o         1 MOL     -0.435504
      4 H1         -5.5420    1.5860   -4.1380 hc        1 MOL      0.119010
      5 H2         -5.1980   -0.1200   -3.7650 hc        1 MOL      0.119010
      6 H3         -6.7540    0.3340   -4.5000 hc        1 MOL      0.119010
      7 N1         -7.8790    1.0980   -2.2480 n         1 MOL     -0.543128
      8 C3         -8.5250    1.3790   -0.9580 c3        1 MOL      0.337050
      9 C4         -8.2740    0.3450    0.1940 c         1 MOL      0.434667
     10 O2         -8.3010    0.7020    1.3480 o         1 MOL     -0.433653
     11 C5         -8.2910    2.8830   -0.6240 c3        1 MOL     -0.354150
     12 C6         -9.3900    3.6140    0.1210 c         1 MOL      0.739403
     13 O3        -10.5240    3.1950    0.1610 o         1 MOL     -0.667504
     14 O4         -9.0930    4.6450    0.6940 o         1 MOL     -0.667504
     15 H4         -8.4770    1.1630   -3.0670 hn        1 MOL      0.319448
     16 H5         -9.5950    1.3220   -1.1700 h1        1 MOL     -0.047652
     17 H6         -8.1400    3.4760   -1.5390 hc        1 MOL      0.098676
     18 H7         -7.3470    2.8970   -0.0940 hc        1 MOL      0.098676
     19 N2         -7.9870   -0.9380   -0.2440 n         1 MOL     -0.559989
     20 C7         -7.6020   -2.0870    0.6760 c3        1 MOL      0.300079
     21 C8         -6.1530   -2.6100    0.5950 c         1 MOL      0.440751
     22 O5         -5.8470   -3.7990    0.8620 o         1 MOL     -0.578059
     23 C9         -8.5720   -3.2540    0.6770 c3        1 MOL     -0.037109
     24 C10        -9.9190   -2.8210    1.2360 c3        1 MOL     -0.000088
     25 C11       -11.0830   -3.8070    0.9120 c3        1 MOL     -0.321252
     26 C12       -11.7740   -3.4360   -0.4360 c3        1 MOL      0.148650
     27 N3        -12.8900   -4.3590   -0.8510 n4        1 MOL     -0.349793
     28 H8         -8.1650   -1.1930   -1.2030 hn        1 MOL      0.249598
     29 H9         -7.7720   -1.6880    1.6760 h1        1 MOL      0.014663
     30 H10        -8.1890   -4.0460    1.3180 hc        1 MOL      0.014976
     31 H11        -8.6550   -3.6580   -0.3370 hc        1 MOL      0.014976
     32 H12       -10.2260   -1.8230    0.9450 hc        1 MOL      0.066621
     33 H13        -9.7760   -2.7750    2.3160 hc        1 MOL      0.066621
     34 H14       -11.8390   -3.8680    1.6900 hc        1 MOL      0.116257
     35 H15       -10.5780   -4.7690    0.8330 hc        1 MOL      0.116257
     36 H16       -11.0910   -3.2670   -1.2630 hx        1 MOL      0.057150
     37 H17       -12.3000   -2.4820   -0.3880 hx        1 MOL      0.057150
     38 H18       -13.3200   -4.0410   -1.7070 hn        1 MOL      0.282902
     39 H19       -12.5560   -5.2940   -1.0500 hn        1 MOL      0.282902
     40 H20       -13.5110   -4.4190   -0.0600 hn        1 MOL      0.282902
     41 N4         -5.2870   -1.7310    0.0920 n         1 MOL     -0.355416
     42 C13        -3.8420   -1.9930   -0.0600 c3        1 MOL      0.006335
     43 C14        -3.2150   -2.3050    1.3110 c         1 MOL      0.471314
     44 O6         -3.3770   -1.5400    2.2570 o         1 MOL     -0.485391
     45 C15        -3.0970   -0.7480   -0.6510 c3        1 MOL     -0.166808
     46 C16        -1.6100   -0.8700   -0.7670 c         1 MOL      0.524886
     47 O7         -0.9040   -0.7490    0.2540 o         1 MOL     -0.663391
     48 O8         -1.1250   -1.2120   -1.8810 o         1 MOL     -0.663391
     49 H21        -5.6210   -0.8470   -0.2680 hn        1 MOL      0.217469
     50 H22        -3.6840   -2.8000   -0.7690 h1        1 MOL      0.056530
     51 H23        -3.4250    0.1490   -0.1120 hc        1 MOL      0.123351
     52 H24        -3.5430   -0.5250   -1.6210 hc        1 MOL      0.123351
     53 N5         -2.4500   -3.3840    1.4100 n         1 MOL     -0.148604
     54 C17        -1.8460   -3.9600    2.6400 c3        1 MOL     -0.083717
     55 C18        -0.9800   -3.0240    3.5840 c         1 MOL      0.496249
     56 O9         -0.7350   -3.3380    4.7410 o         1 MOL     -0.553620
     57 H25        -2.4370   -4.0340    0.6390 hn        1 MOL      0.179105
     58 H26        -1.3280   -4.9090    2.4470 h1        1 MOL      0.074059
     59 H27        -2.6410   -4.2930    3.3010 h1        1 MOL      0.074059
     60 N6         -0.5940   -1.8070    3.1570 n         1 MOL     -0.135496
     61 C19        -0.0030   -0.7350    3.9920 c3        1 MOL      0.079100
     62 C20        -0.4640    0.7230    3.6160 c         1 MOL      0.377916
     63 O10         0.1960    1.6830    3.8850 o         1 MOL     -0.496522
     64 C21         1.5530   -0.9710    3.8760 c3        1 MOL     -0.538171
     65 C22         2.1150   -0.4380    2.5980 c         1 MOL      0.668994
     66 N7          2.9900    0.5250    2.8020 n         1 MOL     -0.679120
     67 O11         1.8070   -0.8240    1.4690 o         1 MOL     -0.602531
     68 H28        -0.7930   -1.4860    2.2180 hn        1 MOL      0.059833
     69 H29        -0.2870   -0.9180    5.0250 h1        1 MOL      0.106385
     70 H30         1.6020   -2.0590    3.9000 hc        1 MOL      0.174302
     71 H31         2.0580   -0.4660    4.7110 hc        1 MOL      0.174302
     72 H32         3.3570    0.7070    3.7290 hn        1 MOL      0.332070
     73 H33         3.6290    0.5890    2.0170 hn        1 MOL      0.332070
     74 N8         -1.5960    0.8690    2.9540 n         1 MOL     -0.114434
     75 C23        -2.2170    2.1450    2.5380 c3        1 MOL     -0.220408
     76 C24        -1.5160    2.8460    1.4110 c         1 MOL      0.579392
     77 O12        -1.6480    4.0690    1.3810 o         1 MOL     -0.543393
     78 H34        -2.0770    0.0380    2.6390 hn        1 MOL      0.051188
     79 H35        -2.3170    2.7230    3.4630 h1        1 MOL      0.138593
     80 H36        -3.2830    1.9950    2.3470 h1        1 MOL      0.138593
     81 N9         -0.7600    2.1720    0.6230 n         1 MOL     -0.505499
     82 C25        -0.1480    2.7770   -0.5620 c3        1 MOL      0.058874
     83 C26         1.1580    2.0860   -0.9090 c         1 MOL      0.596262
     84 O13         1.2130    0.8810   -1.1510 o         1 MOL     -0.501436
     85 C27        -1.0440    2.8070   -1.8630 c3        1 MOL     -0.035993
     86 C28        -2.3040    3.7330   -1.8240 ca        1 MOL      0.029288
     87 C29        -2.2660    5.0330   -2.4620 ca        1 MOL     -0.207032
     88 C30        -3.4350    3.3610   -1.0950 ca        1 MOL     -0.207032
     89 C31        -3.4360    5.8140   -2.3960 ca        1 MOL     -0.176891
     90 C32        -4.5780    4.1380   -1.0760 ca        1 MOL     -0.176891
     91 C33        -4.6120    5.3410   -1.7900 ca        1 MOL      0.329500
     92 O14        -5.6580    6.1520   -1.7960 oh        1 MOL     -0.518049
     93 H37        -0.5620    1.2030    0.8330 hn        1 MOL      0.404337
     94 H38         0.1170    3.8050   -0.3170 h1        1 MOL      0.064029
     95 H39        -1.2190    1.7780   -2.1530 hc        1 MOL      0.036711
     96 H40        -0.4370    3.1100   -2.7180 hc        1 MOL      0.036711
     97 H41        -1.3590    5.5270   -2.7530 ha        1 MOL      0.126384
     98 H42        -3.3930    2.3940   -0.6070 ha        1 MOL      0.126384
     99 H43        -3.3480    6.8610   -2.6460 ha        1 MOL      0.121025
    100 H44        -5.4310    3.8140   -0.5100 ha        1 MOL      0.121025
    101 H45        -6.1580    5.9120   -1.0170 ho        1 MOL      0.399372
    102 N10         2.2750    2.8430   -0.9720 n         1 MOL     -0.577504
    103 C34         3.7110    2.3100   -1.2030 c3        1 MOL      0.123346
    104 C35         4.4470    2.1170    0.1090 c         1 MOL      0.318463
    105 O15         4.8920    1.0170    0.5130 o         1 MOL     -0.326946
    106 C36         4.5790    3.2140   -2.1610 c3        1 MOL     -0.046982
    107 C37         3.7640    3.7190   -3.4200 c3        1 MOL      0.111036
    108 C38         5.8420    2.4060   -2.6580 c3        1 MOL     -0.185994
    109 C39         3.3280    2.6920   -4.3990 c3        1 MOL     -0.182092
    110 H46         2.1690    3.8320   -0.8500 hn        1 MOL      0.284924
    111 H47         3.6040    1.3540   -1.7200 h1        1 MOL      0.044263
    112 H48         4.9710    4.0450   -1.5740 hc        1 MOL      0.001224
    113 H49         4.3230    4.4840   -3.9600 hc        1 MOL      0.001186
    114 H50         2.8550    4.2180   -3.1000 hc        1 MOL      0.001186
    115 H51         6.7000    2.3220   -1.9960 hc        1 MOL      0.062635
    116 H52         5.6080    1.4030   -3.0170 hc        1 MOL      0.062635
    117 H53         6.2170    2.9620   -3.5090 hc        1 MOL      0.062635
    118 H54         2.9370    1.7850   -3.9460 hc        1 MOL      0.053085
    119 H55         2.5710    3.2030   -4.9820 hc        1 MOL      0.053085
    120 H56         4.1750    2.4340   -5.0310 hc        1 MOL      0.053085
    121 N11         4.5150    3.1680    0.8770 n         1 MOL     -0.305975
    122 C40         5.1720    3.2040    2.2400 c3        1 MOL     -0.122543
    123 C41         6.6260    2.7270    2.3100 c         1 MOL      0.538987
    124 O16         7.0320    2.1880    3.3630 o         1 MOL     -0.514210
    125 C42         5.0890    4.6660    2.6530 c3        1 MOL      0.012536
    126 O17         5.5420    5.6340    1.6660 oh        1 MOL     -0.618466
    127 H57         4.1010    4.0380    0.5750 hn        1 MOL      0.337844
    128 H58         4.5170    2.6610    2.9160 h1        1 MOL      0.134860
    129 H59         5.6330    4.7100    3.5950 h1        1 MOL      0.092543
    130 H60         4.0350    4.8380    2.8900 h1        1 MOL      0.092543
    131 H61         5.7110    6.4470    2.1590 ho        1 MOL      0.432484
    132 N12         7.3830    2.8520    1.2550 n         1 MOL     -0.364891
    133 C43         8.7320    2.2260    1.0900 c3        1 MOL      0.198137
    134 C44         8.7120    0.6680    1.3270 c         1 MOL      0.397427
    135 O18         9.7010    0.0330    1.7160 o         1 MOL     -0.515588
    136 C45         9.8340    2.8650    1.8830 c3        1 MOL     -0.370312
    137 H62         7.0970    3.4870    0.5270 hn        1 MOL      0.287429
    138 H63         8.8890    2.3200    0.0130 h1        1 MOL      0.051795
    139 H64        10.7800    2.3940    1.6250 hc        1 MOL      0.111773
    140 H65         9.9750    3.8820    1.5240 hc        1 MOL      0.111773
    141 H66         9.6770    2.7790    2.9540 hc        1 MOL      0.111773
    142 N13         7.5510    0.0280    1.0480 n         1 MOL     -0.143904
    143 C46         7.3080   -1.3790    1.1030 c3        1 MOL      0.298840
    144 C47         7.1390   -2.0190   -0.2730 c         1 MOL      0.209747
    145 O19         6.8340   -1.2790   -1.2490 o         1 MOL     -0.427832
    146 C48         6.1520   -1.5850    2.1220 c3        1 MOL     -0.243703
    147 H67         6.7860    0.5330    0.6270 hn        1 MOL     -0.066100
    148 H68         8.1870   -1.9400    1.4460 h1        1 MOL     -0.005484
    149 H69         5.5220   -0.7050    1.9790 hc        1 MOL      0.062865
    150 H70         5.6810   -2.5350    1.8600 hc        1 MOL      0.062865
    151 H71         6.5080   -1.6360    3.1470 hc        1 MOL      0.062865
    152 N14         7.1980   -3.3320   -0.3850 n         1 MOL     -0.307171
    153 C49         6.9380   -4.0400   -1.6000 c3        1 MOL     -0.038143
    154 C50         7.7580   -3.5840   -2.7870 c         1 MOL      0.437016
    155 O20         7.2230   -3.7010   -3.9070 o         1 MOL     -0.506277
    156 C51         5.3890   -4.1020   -1.8920 c3        1 MOL      0.286240
    157 C52         4.5380   -4.4690   -0.6720 c3        1 MOL      0.064824
    158 C53         3.1810   -4.9260   -1.1400 c         1 MOL      0.497901
    159 O21         2.8210   -6.0910   -1.2590 o         1 MOL     -0.647469
    160 O22         2.4150   -4.0080   -1.5200 o         1 MOL     -0.647469
    161 H72         7.4490   -3.8080    0.4700 hn        1 MOL      0.275788
    162 H73         7.4080   -5.0000   -1.4070 h1        1 MOL      0.072564
    163 H74         5.2660   -4.8690   -2.6560 hc        1 MOL     -0.047464
    164 H75         5.0400   -3.1470   -2.2890 hc        1 MOL     -0.047464
    165 H76         4.4300   -3.5950   -0.0300 hc        1 MOL     -0.084964
    166 H77         5.0400   -5.3110   -0.1960 hc        1 MOL     -0.084964
    167 N15         9.0040   -3.1160   -2.6790 n         1 MOL     -0.332651
    168 C54         9.7090   -2.4250   -3.7470 c3        1 MOL     -0.085293
    169 H78         9.5740   -1.3490   -3.6340 h1        1 MOL      0.074091
    170 H79        10.7710   -2.6650   -3.6960 h1        1 MOL      0.074091
    171 H80         9.3100   -2.7410   -4.7110 h1        1 MOL      0.074091
    172 H81         9.5040   -3.1610   -1.8040 hn        1 MOL      0.256611
    173 Ca1         1.2500   -1.8850   -0.9140 Ca        1 MOL      1.650811
    174 O23         0.5830   -3.8340    0.6270 oh        1 MOL     -0.763859
    175 H82         0.9280   -4.1910    1.4420 ho        1 MOL      0.384443
    176 H83         0.2690   -4.5960    0.1490 ho        1 MOL      0.384443
    177 O24        -0.5010   -3.7490   -2.3510 oh        1 MOL     -0.763859
    178 H84        -0.1600   -4.3210   -3.0290 ho        1 MOL      0.384443
    179 H85        -1.0140   -4.3240   -1.7910 ho        1 MOL      0.384443
    180 O25         1.9870   -1.6250   -3.4280 oh        1 MOL     -0.763859
    181 H86         2.3440   -2.3530   -3.9420 ho        1 MOL      0.384443
    182 H87         1.9560   -0.8910   -4.0480 ho        1 MOL      0.384443
    183 O26         3.7790   -1.1040   -0.9510 oh        1 MOL     -0.763859
    184 H88         4.5440   -1.2330   -1.5230 ho        1 MOL      0.384443
    185 H89         4.0990   -0.5270   -0.2580 ho        1 MOL      0.384443
@<TRIPOS>BOND
     1    1    2 1   
     2    1    4 1   
     3    1    5 1   
     4    1    6 1   
     5    2    3 2   
     6    2    7 1   
     7    7    8 1   
     8    7   15 1   
     9    8    9 1   
    10    8   11 1   
    11    8   16 1   
    12    9   10 2   
    13    9   19 1   
    14   11   12 1   
    15   11   17 1   
    16   11   18 1   
    17   12   13 1   
    18   12   14 1   
    19   19   20 1   
    20   19   28 1   
    21   20   21 1   
    22   20   23 1   
    23   20   29 1   
    24   21   22 2   
    25   21   41 1   
    26   23   24 1   
    27   23   30 1   
    28   23   31 1   
    29   24   25 1   
    30   24   32 1   
    31   24   33 1   
    32   25   26 1   
    33   25   34 1   
    34   25   35 1   
    35   26   27 1   
    36   26   36 1   
    37   26   37 1   
    38   27   38 1   
    39   27   39 1   
    40   27   40 1   
    41   41   42 1   
    42   41   49 1   
    43   42   43 1   
    44   42   45 1   
    45   42   50 1   
    46   43   44 2   
    47   43   53 1   
    48   45   46 1   
    49   45   51 1   
    50   45   52 1   
    51   46   47 1   
    52   46   48 1   
    53   53   54 1   
    54   53   57 1   
    55   54   55 1   
    56   54   58 1   
    57   54   59 1   
    58   55   56 2   
    59   55   60 1   
    60   60   61 1   
    61   60   68 1   
    62   61   62 1   
    63   61   64 1   
    64   61   69 1   
    65   62   63 2   
    66   62   74 1   
    67   64   65 1   
    68   64   70 1   
    69   64   71 1   
    70   65   66 1   
    71   65   67 2   
    72   66   72 1   
    73   66   73 1   
    74   74   75 1   
    75   74   78 1   
    76   75   76 1   
    77   75   79 1   
    78   75   80 1   
    79   76   77 2   
    80   76   81 1   
    81   81   82 1   
    82   81   93 1   
    83   82   83 1   
    84   82   85 1   
    85   82   94 1   
    86   83   84 2   
    87   83  102 1   
    88   85   86 1   
    89   85   95 1   
    90   85   96 1   
    91   86   87 ar  
    92   86   88 ar  
    93   87   89 ar  
    94   87   97 1   
    95   88   90 ar  
    96   88   98 1   
    97   89   91 ar  
    98   89   99 1   
    99   90   91 ar  
   100   90  100 1   
   101   91   92 1   
   102   92  101 1   
   103  102  103 1   
   104  102  110 1   
   105  103  104 1   
   106  103  106 1   
   107  103  111 1   
   108  104  105 2   
   109  104  121 1   
   110  106  107 1   
   111  106  108 1   
   112  106  112 1   
   113  107  109 1   
   114  107  113 1   
   115  107  114 1   
   116  108  115 1   
   117  108  116 1   
   118  108  117 1   
   119  109  118 1   
   120  109  119 1   
   121  109  120 1   
   122  121  122 1   
   123  121  127 1   
   124  122  123 1   
   125  122  125 1   
   126  122  128 1   
   127  123  124 2   
   128  123  132 1   
   129  125  126 1   
   130  125  129 1   
   131  125  130 1   
   132  126  131 1   
   133  132  133 1   
   134  132  137 1   
   135  133  134 1   
   136  133  136 1   
   137  133  138 1   
   138  134  135 2   
   139  134  142 1   
   140  136  139 1   
   141  136  140 1   
   142  136  141 1   
   143  142  143 1   
   144  142  147 1   
   145  143  144 1   
   146  143  146 1   
   147  143  148 1   
   148  144  145 2   
   149  144  152 1   
   150  146  149 1   
   151  146  150 1   
   152  146  151 1   
   153  152  153 1   
   154  152  161 1   
   155  153  154 1   
   156  153  156 1   
   157  153  162 1   
   158  154  155 2   
   159  154  167 1   
   160  156  157 1   
   161  156  163 1   
   162  156  164 1   
   163  157  158 1   
   164  157  165 1   
   165  157  166 1   
   166  158  159 1   
   167  158  160 1   
   168  167  168 1   
   169  167  172 1   
   170  168  169 1   
   171  168  170 1   
   172  168  171 1   
   173  174  175 1   
   174  174  176 1   
   175  177  178 1   
   176  177  179 1   
   177  180  181 1   
   178  180  182 1   
   179  183  184 1   
   180  183  185 1   
@<TRIPOS>SUBSTRUCTURE
     1 MOL         1 TEMP              0 ****  ****    0 ROOT
