@<TRIPOS>MOLECULE
MOL
  178   175     1     0     0
SMALL
resp


@<TRIPOS>ATOM
      1 C1          5.2970   -1.6580    4.6200 c3        1 MOL     -0.408500
      2 C2          6.6660   -1.1550    4.1390 c         1 MOL      0.745392
      3 O1          6.8960    0.0510    4.1080 o         1 MOL     -0.610827
      4 H1          4.6050   -1.6900    3.7790 hc        1 MOL      0.097276
      5 H2          5.4050   -2.6590    5.0400 hc        1 MOL      0.097276
      6 H3          4.9090   -0.9840    5.3830 hc        1 MOL      0.097276
      7 N1          7.6390   -1.9910    3.7530 n         1 MOL     -0.663664
      8 C3          8.8440   -1.5790    3.0580 c3        1 MOL      0.222632
      9 C4          8.5200   -1.5180    1.5670 c         1 MOL      0.582835
     10 O2          7.9170   -2.5110    1.0190 o         1 MOL     -0.628672
     11 C5         10.0330   -2.5360    3.3150 c3        1 MOL     -0.207521
     12 C6         11.2210   -1.9630    2.5310 c         1 MOL      0.745280
     13 O3         12.1140   -2.7740    2.3200 o         1 MOL     -0.737758
     14 O4         11.2810   -0.7640    2.2310 o         1 MOL     -0.737758
     15 H4          7.4950   -2.9700    3.9600 hn        1 MOL      0.321388
     16 H5          9.1730   -0.5900    3.3760 h1        1 MOL      0.025992
     17 H6          9.7430   -3.5590    3.0490 hc        1 MOL      0.022054
     18 H7         10.3700   -2.5670    4.3450 hc        1 MOL      0.022054
     19 N2          8.7880   -0.4500    0.9320 n         1 MOL     -0.399573
     20 C7          8.4780   -0.1510   -0.4050 c3        1 MOL      0.153180
     21 C8          6.9380   -0.0200   -0.6140 c         1 MOL      0.569623
     22 O5          6.2900    0.8500    0.0340 o         1 MOL     -0.556217
     23 C9          9.2300    1.0960   -0.9070 c3        1 MOL     -0.336181
     24 H8          9.2260    0.2790    1.4790 hn        1 MOL      0.284801
     25 H9          8.8090   -1.0350   -0.9460 h1        1 MOL      0.035355
     26 H10         8.7440    1.9360   -0.3990 hc        1 MOL      0.090935
     27 H11        10.2740    1.1340   -0.6140 hc        1 MOL      0.090935
     28 H12         9.0650    1.1610   -1.9850 hc        1 MOL      0.090935
     29 N3          6.4390   -0.8860   -1.4760 n         1 MOL     -0.478082
     30 C10         5.0360   -1.1020   -1.8890 c3        1 MOL      0.416258
     31 C11         4.5110   -0.0580   -2.8830 c         1 MOL      0.411917
     32 O6          4.2530   -0.3990   -4.0280 o         1 MOL     -0.509029
     33 C12         4.9180   -2.5710   -2.3640 c3        1 MOL     -0.260760
     34 C13         3.3760   -2.9690   -2.5020 c         1 MOL      0.713941
     35 O7          2.5430   -2.3080   -1.8130 o         1 MOL     -0.748505
     36 O8          2.9700   -3.8730   -3.2320 o         1 MOL     -0.748505
     37 H13         7.1430   -1.4010   -1.9850 hn        1 MOL      0.234150
     38 H14         4.4970   -1.0600   -0.9440 h1        1 MOL      0.004273
     39 H15         5.2690   -3.2060   -1.5340 hc        1 MOL      0.055736
     40 H16         5.5340   -2.7820   -3.2370 hc        1 MOL      0.055736
     41 N4          4.8610    1.2150   -2.6310 n         1 MOL     -0.374843
     42 C14         5.1320    2.2960   -3.5990 c3        1 MOL      0.028592
     43 C15         3.8830    3.2410   -3.7940 c         1 MOL      0.501764
     44 O9          4.0460    4.2400   -4.5020 o         1 MOL     -0.584931
     45 H17         5.2060    1.4120   -1.7040 hn        1 MOL      0.208569
     46 H18         5.3900    1.8370   -4.5550 h1        1 MOL      0.055294
     47 H19         6.0270    2.8410   -3.3050 h1        1 MOL      0.055294
     48 N5          2.6990    2.9690   -3.2470 n         1 MOL     -0.201360
     49 C16         1.5310    3.7500   -3.4170 c3        1 MOL      0.030835
     50 C17         1.2860    4.7770   -2.3160 c         1 MOL      0.531895
     51 O10         1.4150    4.4510   -1.1650 o         1 MOL     -0.500277
     52 C18         0.3100    2.8170   -3.7520 c3        1 MOL     -0.315907
     53 C19         0.5170    1.8070   -4.8170 c         1 MOL      0.718626
     54 N6          0.8430    0.6170   -4.3350 n         1 MOL     -0.816435
     55 O11         0.4030    1.9930   -6.0460 o         1 MOL     -0.598453
     56 H20         2.6580    2.1410   -2.6690 hn        1 MOL      0.174227
     57 H21         1.6410    4.3390   -4.3220 h1        1 MOL      0.051005
     58 H22        -0.6500    3.2880   -3.9860 hc        1 MOL      0.110411
     59 H23         0.0530    2.2820   -2.8340 hc        1 MOL      0.110411
     60 H24         1.0050    0.4950   -3.3500 hn        1 MOL      0.374930
     61 H25         0.9940   -0.1840   -4.9320 hn        1 MOL      0.374930
     62 N7          0.8880    6.0120   -2.6160 n         1 MOL     -0.456779
     63 C20         0.4340    7.0380   -1.6310 c3        1 MOL     -0.071435
     64 C21        -0.6850    6.6050   -0.6680 c         1 MOL      0.554877
     65 O12        -1.6380    5.9030   -0.9840 o         1 MOL     -0.476579
     66 H26         0.7220    6.2230   -3.5900 hn        1 MOL      0.298237
     67 H27         0.0760    7.8870   -2.2140 h1        1 MOL      0.083189
     68 H28         1.2750    7.4400   -1.0760 h1        1 MOL      0.083189
     69 N8         -0.6310    7.2030    0.5290 n         1 MOL     -0.406283
     70 C22        -1.7410    7.1680    1.4940 c3        1 MOL     -0.176680
     71 C23        -2.2730    5.7460    1.8960 c         1 MOL      0.324564
     72 O13        -3.5070    5.6410    2.1800 o         1 MOL     -0.548152
     73 C24        -1.2260    7.8970    2.8110 c3        1 MOL      0.368280
     74 C25         0.0210    7.2400    3.5340 c3        1 MOL     -0.325192
     75 O14        -1.0520    9.2220    2.3720 oh        1 MOL     -0.612764
     76 H29         0.0950    7.8760    0.6870 hn        1 MOL      0.217335
     77 H30        -2.5830    7.7070    1.0530 h1        1 MOL      0.148150
     78 H31        -1.9980    7.8760    3.5740 h1        1 MOL      0.062280
     79 H32        -0.2810    9.1790    1.8040 ho        1 MOL      0.382527
     80 H33         0.1010    7.7240    4.5110 hc        1 MOL      0.078765
     81 H34        -0.0680    6.1620    3.6180 hc        1 MOL      0.078765
     82 H35         0.9120    7.5690    2.9990 hc        1 MOL      0.078765
     83 N9         -1.4490    4.7260    2.0550 n         1 MOL      0.160251
     84 C26        -2.0050    3.3250    2.2590 c3        1 MOL     -0.013125
     85 C27        -1.6350    2.3620    1.1940 c         1 MOL      0.260442
     86 O15        -0.7010    2.5380    0.4150 o         1 MOL     -0.458445
     87 C28        -1.7940    2.6880    3.6720 c3        1 MOL      0.074743
     88 C29        -0.3270    2.4500    4.0170 c3        1 MOL     -0.227658
     89 C30        -2.2930    3.6460    4.7670 c3        1 MOL     -0.286214
     90 C31         0.5550    1.3890    3.3160 c3        1 MOL     -0.169324
     91 H36        -0.5400    4.8340    1.6320 hn        1 MOL      0.123895
     92 H37        -3.0950    3.3810    2.2190 h1        1 MOL      0.069948
     93 H38        -2.2520    1.7190    3.8770 hc        1 MOL      0.059451
     94 H39        -0.3050    2.3130    5.1010 hc        1 MOL      0.056207
     95 H40         0.1540    3.4290    3.9540 hc        1 MOL      0.056207
     96 H41        -3.3690    3.7480    4.5570 hc        1 MOL      0.065360
     97 H42        -2.1970    3.2170    5.7610 hc        1 MOL      0.065360
     98 H43        -2.0070    4.6720    4.5520 hc        1 MOL      0.065360
     99 H44         0.1170    0.3970    3.4240 hc        1 MOL      0.090599
    100 H45         0.7140    1.6100    2.2610 hc        1 MOL      0.090599
    101 H46         1.5520    1.3420    3.7700 hc        1 MOL      0.090599
    102 N10        -2.3330    1.2640    1.0130 n         1 MOL     -0.259790
    103 C32        -2.0720    0.1580    0.0840 c3        1 MOL      0.180972
    104 C33        -3.3890   -0.4630   -0.3590 c         1 MOL      0.407355
    105 O16        -3.5370   -1.6920   -0.3560 o         1 MOL     -0.400147
    106 C34        -1.0600   -0.8320    0.6120 c3        1 MOL      0.027787
    107 C35        -0.5100   -1.9490   -0.2550 c         1 MOL      0.655358
    108 O17         0.1290   -2.8470    0.3200 o         1 MOL     -0.690738
    109 O18        -0.5760   -1.7910   -1.5460 o         1 MOL     -0.690738
    110 H47        -3.1580    1.1510    1.5960 hn        1 MOL      0.184263
    111 H48        -1.7180    0.4840   -0.9000 h1        1 MOL     -0.007505
    112 H49        -1.5990   -1.2900    1.4370 hc        1 MOL     -0.047385
    113 H50        -0.2410   -0.2250    1.0030 hc        1 MOL     -0.047385
    114 N11        -4.3710    0.4320   -0.6470 n         1 MOL     -0.369134
    115 C36        -5.8260    0.1510   -0.8510 c3        1 MOL      0.040571
    116 C37        -6.2640   -0.8740    0.2480 c         1 MOL      0.336539
    117 O19        -6.0030   -0.6070    1.4220 o         1 MOL     -0.511012
    118 C38        -6.6070    1.4760   -0.8340 c3        1 MOL     -0.199148
    119 C39        -8.0520    1.3110   -1.0210 ca        1 MOL      0.129322
    120 C40        -8.5430    1.0680   -2.3160 ca        1 MOL     -0.190736
    121 C41        -8.9390    1.1310    0.0410 ca        1 MOL     -0.190736
    122 C42        -9.8980    0.9200   -2.5650 ca        1 MOL     -0.128468
    123 C43       -10.3490    0.7780   -0.1980 ca        1 MOL     -0.128468
    124 C44       -10.7930    0.6730   -1.4930 ca        1 MOL     -0.077561
    125 H51        -4.1650    1.4170   -0.6050 hn        1 MOL      0.252574
    126 H52        -5.9800   -0.4460   -1.7570 h1        1 MOL      0.035823
    127 H53        -6.2550    2.1130   -1.6510 hc        1 MOL      0.103000
    128 H54        -6.4140    2.0340    0.0800 hc        1 MOL      0.103000
    129 H55        -7.8650    1.0740   -3.1560 ha        1 MOL      0.133837
    130 H56        -8.5470    1.2660    1.0430 ha        1 MOL      0.133837
    131 H57       -10.3000    0.9130   -3.5730 ha        1 MOL      0.114382
    132 H58       -11.0090    0.5630    0.6360 ha        1 MOL      0.114382
    133 H59       -11.8380    0.4960   -1.7120 ha        1 MOL      0.090825
    134 N12        -6.9770   -2.0000   -0.0660 n         1 MOL      0.088187
    135 C45        -7.5600   -2.8630    0.9150 c3        1 MOL      0.121281
    136 C46        -6.6350   -3.5000    1.9140 c         1 MOL      0.236531
    137 O20        -6.9140   -3.7160    3.0580 o         1 MOL     -0.483451
    138 C47        -8.4120   -3.9510    0.1350 c3        1 MOL     -0.114172
    139 C48        -7.9200   -3.8880   -1.2880 c3        1 MOL     -0.014601
    140 C49        -7.5940   -2.4090   -1.3260 c3        1 MOL     -0.223771
    141 H60        -8.2540   -2.2280    1.4630 h1        1 MOL      0.021564
    142 H61        -8.1420   -4.9280    0.5380 hc        1 MOL      0.050233
    143 H62        -9.4810   -3.7880    0.2120 hc        1 MOL      0.050233
    144 H63        -6.9790   -4.4260   -1.3660 hc        1 MOL      0.035757
    145 H64        -8.6030   -4.0970   -2.1150 hc        1 MOL      0.035757
    146 H65        -6.8590   -2.3020   -2.1130 h1        1 MOL      0.091331
    147 H66        -8.4950   -1.8050   -1.4170 h1        1 MOL      0.091331
    148 N13        -5.4440   -3.9000    1.4280 n         1 MOL     -0.059101
    149 C50        -4.4220   -4.5770    2.1050 c3        1 MOL     -0.147193
    150 C51        -4.0810   -3.9630    3.4990 c         1 MOL      0.511653
    151 O21        -3.8660   -4.6860    4.4560 o         1 MOL     -0.557105
    152 C52        -3.1350   -4.6250    1.2850 c3        1 MOL      0.132764
    153 C53        -3.2180   -5.5800    0.0970 c3        1 MOL     -0.437562
    154 C54        -1.9330   -5.3940   -0.7190 c         1 MOL      0.743608
    155 O22        -1.8880   -4.8290   -1.8230 o         1 MOL     -0.747304
    156 O23        -0.8660   -5.6930   -0.2240 o         1 MOL     -0.747304
    157 H67        -5.3060   -3.6180    0.4670 hn        1 MOL      0.156050
    158 H68        -4.7310   -5.6150    2.2810 h1        1 MOL      0.079355
    159 H69        -2.3750   -4.9950    1.9840 hc        1 MOL      0.025637
    160 H70        -2.8400   -3.6310    0.9380 hc        1 MOL      0.025637
    161 H71        -4.0150   -5.3190   -0.6090 hc        1 MOL      0.092916
    162 H72        -3.2600   -6.5820    0.5230 hc        1 MOL      0.092916
    163 N14        -4.0360   -2.6460    3.6610 n         1 MOL     -0.226213
    164 C55        -3.6610   -2.0960    5.0240 c3        1 MOL     -0.378982
    165 H73        -2.5910   -2.2240    5.1860 h1        1 MOL      0.144156
    166 H74        -3.9100   -1.0350    5.0690 h1        1 MOL      0.144156
    167 H75        -4.2110   -2.6320    5.7970 h1        1 MOL      0.144156
    168 H76        -4.2970   -2.0030    2.9310 hn        1 MOL      0.252983
    169 Ca1         0.6840   -4.1810   -1.7960 Ca        1 MOL      1.753974
    170 O24         0.4790   -6.2980   -3.3590 oh        1 MOL     -0.826860
    171 H77        -0.1900   -6.9810   -3.4690 ho        1 MOL      0.406788
    172 H78         1.2880   -6.6860   -3.6930 ho        1 MOL      0.406788
    173 O25         2.5710   -5.7050   -0.5540 oh        1 MOL     -0.826860
    174 H79         3.1100   -6.3990   -0.9360 ho        1 MOL      0.406788
    175 H80         2.6860   -5.8100    0.3950 ho        1 MOL      0.406788
    176 O26         0.1200   -3.1820   -4.2220 oh        1 MOL     -0.826860
    177 H81        -0.3610   -3.2010   -5.0520 ho        1 MOL      0.406788
    178 H82         0.8750   -2.6240   -4.3960 ho        1 MOL      0.406788
@<TRIPOS>BOND
     1    1    2 1   
     2    1    4 1   
     3    1    5 1   
     4    1    6 1   
     5    2    3 2   
     6    2    7 1   
     7    7    8 1   
     8    7   15 1   
     9    8    9 1   
    10    8   11 1   
    11    8   16 1   
    12    9   10 2   
    13    9   19 1   
    14   11   12 1   
    15   11   17 1   
    16   11   18 1   
    17   12   13 1   
    18   12   14 1   
    19   19   20 1   
    20   19   24 1   
    21   20   21 1   
    22   20   23 1   
    23   20   25 1   
    24   21   22 2   
    25   21   29 1   
    26   23   26 1   
    27   23   27 1   
    28   23   28 1   
    29   29   30 1   
    30   29   37 1   
    31   30   31 1   
    32   30   33 1   
    33   30   38 1   
    34   31   32 2   
    35   31   41 1   
    36   33   34 1   
    37   33   39 1   
    38   33   40 1   
    39   34   35 1   
    40   34   36 1   
    41   41   42 1   
    42   41   45 1   
    43   42   43 1   
    44   42   46 1   
    45   42   47 1   
    46   43   44 2   
    47   43   48 1   
    48   48   49 1   
    49   48   56 1   
    50   49   50 1   
    51   49   52 1   
    52   49   57 1   
    53   50   51 2   
    54   50   62 1   
    55   52   53 1   
    56   52   58 1   
    57   52   59 1   
    58   53   54 1   
    59   53   55 2   
    60   54   60 1   
    61   54   61 1   
    62   62   63 1   
    63   62   66 1   
    64   63   64 1   
    65   63   67 1   
    66   63   68 1   
    67   64   65 2   
    68   64   69 1   
    69   69   70 1   
    70   69   76 1   
    71   70   71 1   
    72   70   73 1   
    73   70   77 1   
    74   71   72 2   
    75   71   83 1   
    76   73   74 1   
    77   73   75 1   
    78   73   78 1   
    79   74   80 1   
    80   74   81 1   
    81   74   82 1   
    82   75   79 1   
    83   83   84 1   
    84   83   91 1   
    85   84   85 1   
    86   84   87 1   
    87   84   92 1   
    88   85   86 2   
    89   85  102 1   
    90   87   88 1   
    91   87   89 1   
    92   87   93 1   
    93   88   90 1   
    94   88   94 1   
    95   88   95 1   
    96   89   96 1   
    97   89   97 1   
    98   89   98 1   
    99   90   99 1   
   100   90  100 1   
   101   90  101 1   
   102  102  103 1   
   103  102  110 1   
   104  103  104 1   
   105  103  106 1   
   106  103  111 1   
   107  104  105 2   
   108  104  114 1   
   109  106  107 1   
   110  106  112 1   
   111  106  113 1   
   112  107  108 1   
   113  107  109 1   
   114  114  115 1   
   115  114  125 1   
   116  115  116 1   
   117  115  118 1   
   118  115  126 1   
   119  116  117 2   
   120  116  134 1   
   121  118  119 1   
   122  118  127 1   
   123  118  128 1   
   124  119  120 ar  
   125  119  121 ar  
   126  120  122 ar  
   127  120  129 1   
   128  121  123 ar  
   129  121  130 1   
   130  122  124 ar  
   131  122  131 1   
   132  123  124 ar  
   133  123  132 1   
   134  124  133 1   
   135  134  135 1   
   136  134  140 1   
   137  135  136 1   
   138  135  138 1   
   139  135  141 1   
   140  136  137 2   
   141  136  148 1   
   142  138  139 1   
   143  138  142 1   
   144  138  143 1   
   145  139  140 1   
   146  139  144 1   
   147  139  145 1   
   148  140  146 1   
   149  140  147 1   
   150  148  149 1   
   151  148  157 1   
   152  149  150 1   
   153  149  152 1   
   154  149  158 1   
   155  150  151 2   
   156  150  163 1   
   157  152  153 1   
   158  152  159 1   
   159  152  160 1   
   160  153  154 1   
   161  153  161 1   
   162  153  162 1   
   163  154  155 1   
   164  154  156 1   
   165  163  164 1   
   166  163  168 1   
   167  164  165 1   
   168  164  166 1   
   169  164  167 1   
   170  170  171 1   
   171  170  172 1   
   172  173  174 1   
   173  173  175 1   
   174  176  177 1   
   175  176  178 1   
@<TRIPOS>SUBSTRUCTURE
     1 MOL         1 TEMP              0 ****  ****    0 ROOT
