@<TRIPOS>MOLECULE
MOL
  182   178     1     0     0
SMALL
resp


@<TRIPOS>ATOM
      1 C1         -0.1070   -3.1590    6.5420 c3        1 MOL     -0.419128
      2 C2          0.0630   -3.0920    4.9880 c         1 MOL      0.748165
      3 O1         -0.8830   -3.2790    4.2730 o         1 MOL     -0.562086
      4 H1          0.3610   -2.2850    6.9960 hc        1 MOL      0.119671
      5 H2         -1.1680   -3.1720    6.7910 hc        1 MOL      0.119671
      6 H3          0.3670   -4.0640    6.9220 hc        1 MOL      0.119671
      7 N1          1.3420   -2.7590    4.4790 n         1 MOL     -0.676286
      8 C3          1.7230   -2.6500    3.0720 c3        1 MOL      0.041548
      9 C4          1.8190   -3.9630    2.3700 c         1 MOL      0.566434
     10 O2          2.0670   -4.9450    3.0370 o         1 MOL     -0.565645
     11 C5          3.0450   -1.8760    3.1060 c3        1 MOL      0.015976
     12 C6          3.4510   -1.3880    1.7310 c         1 MOL      0.619109
     13 O3          4.0660   -0.3370    1.6700 o         1 MOL     -0.689857
     14 O4          3.2800   -2.1020    0.7050 o         1 MOL     -0.689857
     15 H4          2.0880   -2.7400    5.1640 hn        1 MOL      0.327343
     16 H5          1.0760   -1.9220    2.5950 h1        1 MOL      0.145235
     17 H6          3.8720   -2.4010    3.5620 hc        1 MOL      0.021461
     18 H7          2.7530   -0.9600    3.6260 hc        1 MOL      0.021461
     19 N2          1.5990   -4.0460    1.0990 n         1 MOL     -0.226787
     20 C7          1.5190   -5.3460    0.2600 c3        1 MOL      0.011418
     21 C8          2.7790   -5.5840   -0.6470 c         1 MOL      0.423471
     22 O5          3.1980   -6.6820   -0.9970 o         1 MOL     -0.535696
     23 C9          0.2830   -5.2110   -0.6300 c3        1 MOL      0.055150
     24 C10        -0.3300   -6.4930   -1.2610 c3        1 MOL     -0.082673
     25 C11        -1.6920   -6.1610   -1.8640 c3        1 MOL      0.029294
     26 C12        -2.1360   -7.3780   -2.7570 c3        1 MOL      0.028878
     27 N3         -3.5880   -7.4870   -2.7460 n4        1 MOL     -0.288291
     28 H8          1.3790   -3.1930    0.6150 hn        1 MOL      0.045647
     29 H9          1.3900   -6.1720    0.9480 h1        1 MOL      0.094756
     30 H10         0.5440   -4.5790   -1.4740 hc        1 MOL     -0.009407
     31 H11        -0.5290   -4.7170   -0.0940 hc        1 MOL     -0.009407
     32 H12        -0.4010   -7.2990   -0.5350 hc        1 MOL      0.037970
     33 H13         0.2090   -6.8960   -2.1170 hc        1 MOL      0.037970
     34 H14        -1.6680   -5.1830   -2.3390 hc        1 MOL      0.030279
     35 H15        -2.4050   -5.9050   -1.0870 hc        1 MOL      0.030279
     36 H16        -1.7060   -8.2840   -2.3170 hx        1 MOL      0.072375
     37 H17        -1.8260   -7.3450   -3.7990 hx        1 MOL      0.072375
     38 H18        -3.8940   -7.9570   -1.9030 hn        1 MOL      0.252736
     39 H19        -4.0340   -6.6140   -2.9960 hn        1 MOL      0.252736
     40 H20        -3.7740   -8.1210   -3.5100 hn        1 MOL      0.252736
     41 N4          3.4140   -4.4350   -0.9380 n         1 MOL     -0.064898
     42 C13         4.7760   -4.4480   -1.6880 c3        1 MOL      0.143939
     43 C14         5.9050   -4.1640   -0.7970 c         1 MOL      0.364800
     44 O6          7.0290   -4.8140   -0.8780 o         1 MOL     -0.546669
     45 C15         4.7390   -3.5650   -2.9380 c3        1 MOL     -0.316194
     46 C16         4.0010   -2.2300   -2.7000 c         1 MOL      0.772249
     47 O7          2.8430   -2.0510   -3.0690 o         1 MOL     -0.721213
     48 O8          4.5900   -1.4110   -1.9500 o         1 MOL     -0.721213
     49 H21         2.9760   -3.5760   -0.6140 hn        1 MOL     -0.110585
     50 H22         5.0090   -5.4720   -1.9930 h1        1 MOL      0.079719
     51 H23         4.2000   -4.1760   -3.6540 hc        1 MOL      0.088559
     52 H24         5.7460   -3.4030   -3.3240 hc        1 MOL      0.088559
     53 N5          5.7500   -3.2840    0.1690 n         1 MOL     -0.145486
     54 C17         6.7560   -2.8320    1.1640 c3        1 MOL     -0.240396
     55 C18         7.4280   -1.4650    0.8690 c         1 MOL      0.540863
     56 O9          8.3500   -1.0630    1.5970 o         1 MOL     -0.560958
     57 H25         4.8070   -2.9680    0.3470 hn        1 MOL      0.183803
     58 H26         7.5130   -3.6140    1.2530 h1        1 MOL      0.134359
     59 H27         6.2200   -2.7520    2.1090 h1        1 MOL      0.134359
     60 N6          6.8030   -0.7140   -0.0340 n         1 MOL     -0.115517
     61 C19         7.2940    0.5500   -0.6680 c3        1 MOL     -0.197750
     62 C20         6.3310    1.7160   -0.4900 c         1 MOL      0.711137
     63 O10         5.1560    1.4470   -0.4580 o         1 MOL     -0.522068
     64 C21         7.6300    0.3740   -2.1860 c3        1 MOL     -0.012039
     65 C22         8.7350   -0.6150   -2.6000 c         1 MOL      0.596977
     66 N7          8.8690   -0.8610   -3.8660 n         1 MOL     -0.712178
     67 O11         9.4130   -1.1840   -1.7310 o         1 MOL     -0.491259
     68 H28         5.9430   -1.0150   -0.4730 hn        1 MOL      0.177634
     69 H29         8.3010    0.6930   -0.2680 h1        1 MOL      0.080704
     70 H30         7.9340    1.3640   -2.5300 hc        1 MOL     -0.039822
     71 H31         6.7050    0.1050   -2.6960 hc        1 MOL     -0.039822
     72 H32         8.4730   -0.2030   -4.5340 hn        1 MOL      0.342637
     73 H33         9.6020   -1.4990   -4.1290 hn        1 MOL      0.342637
     74 N8          6.9150    2.9130   -0.4860 n         1 MOL     -0.596853
     75 C23         6.1500    4.1950   -0.7790 c3        1 MOL      0.036657
     76 C24         4.9140    4.4130    0.2290 c         1 MOL      0.523905
     77 O12         4.9390    4.3420    1.4450 o         1 MOL     -0.457568
     78 H34         7.8910    2.8800   -0.7660 hn        1 MOL      0.377694
     79 H35         5.6970    4.1780   -1.7690 h1        1 MOL      0.059217
     80 H36         6.7150    5.1240   -0.7430 h1        1 MOL      0.059217
     81 N9          3.7410    4.6770   -0.4310 n         1 MOL     -0.597935
     82 C25         2.4280    4.8490    0.2230 c3        1 MOL      0.280470
     83 C26         1.7680    3.5040    0.6120 c         1 MOL      0.857056
     84 O13         2.1790    2.4850    0.1060 o         1 MOL     -0.712560
     85 C27         1.4650    5.7840   -0.5730 c3        1 MOL     -0.527197
     86 C28         1.8710    7.2150   -0.7400 ca        1 MOL      0.352322
     87 C29         1.6040    8.0540    0.3570 ca        1 MOL     -0.279177
     88 C30         2.4140    7.7110   -1.9370 ca        1 MOL     -0.279177
     89 C31         1.9550    9.4240    0.2930 ca        1 MOL     -0.196507
     90 C32         2.6550    9.0930   -2.0360 ca        1 MOL     -0.196507
     91 C33         2.4600    9.9760   -0.9080 ca        1 MOL      0.246653
     92 O14         2.8080   11.3010   -1.0530 oh        1 MOL     -0.444407
     93 H37         3.8150    4.5250   -1.4230 hn        1 MOL      0.305185
     94 H38         2.5660    5.4000    1.1530 h1        1 MOL      0.030696
     95 H39         0.4570    5.8010   -0.1470 hc        1 MOL      0.129203
     96 H40         1.3810    5.3180   -1.5620 hc        1 MOL      0.129203
     97 H41         1.2590    7.6360    1.2980 ha        1 MOL      0.161844
     98 H42         2.5650    7.1240   -2.8310 ha        1 MOL      0.161844
     99 H43         1.8720   10.0860    1.1410 ha        1 MOL      0.148577
    100 H44         3.1810    9.5540   -2.8520 ha        1 MOL      0.148577
    101 H45         2.5760   11.7330   -0.2290 ho        1 MOL      0.358275
    102 N10         0.7490    3.5780    1.5140 n         1 MOL     -0.836074
    103 C34         0.3110    2.4120    2.2650 c3        1 MOL      0.061104
    104 C35        -0.0610    1.1440    1.4030 c         1 MOL      0.799677
    105 O15         0.7920    0.3100    1.0520 o         1 MOL     -0.555637
    106 C36         1.2480    2.0990    3.4520 c3        1 MOL      0.151497
    107 C37         0.5890    1.1070    4.4500 c3        1 MOL     -0.021272
    108 C38         1.7710    3.3870    4.1160 c3        1 MOL     -0.583526
    109 C39        -0.5860    1.6920    5.2270 c3        1 MOL      0.015131
    110 H46         0.4620    4.4520    1.9340 hn        1 MOL      0.381772
    111 H47        -0.6370    2.6720    2.7360 h1        1 MOL      0.093849
    112 H48         2.1660    1.5880    3.1800 hc        1 MOL      0.057786
    113 H49         1.2220    0.6220    5.1980 hc        1 MOL      0.004235
    114 H50         0.1960    0.3050    3.8310 hc        1 MOL      0.004235
    115 H51         2.3800    3.1360    4.9740 hc        1 MOL      0.157149
    116 H52         2.4090    3.8680    3.3660 hc        1 MOL      0.157149
    117 H53         1.0020    4.0340    4.5280 hc        1 MOL      0.157149
    118 H54        -1.4360    1.9070    4.5800 hc        1 MOL     -0.011468
    119 H55        -0.9700    0.9680    5.9510 hc        1 MOL     -0.011468
    120 H56        -0.3440    2.6390    5.6930 hc        1 MOL     -0.011468
    121 N11        -1.3620    0.9230    1.2620 n         1 MOL     -0.648780
    122 C40        -1.8280   -0.3330    0.5300 c3        1 MOL      0.100671
    123 C41        -3.2460   -0.3630   -0.0950 c         1 MOL      0.593382
    124 O16        -3.4590   -1.1060   -1.0800 o         1 MOL     -0.560915
    125 C42        -1.8110   -1.5760    1.4530 c3        1 MOL      0.090163
    126 O17        -2.2500   -1.1830    2.7190 oh        1 MOL     -0.612815
    127 H57        -2.1220    1.4270    1.6940 hn        1 MOL      0.307775
    128 H58        -1.1930   -0.6550   -0.2880 h1        1 MOL      0.010506
    129 H59        -0.7720   -1.8880    1.6020 h1        1 MOL      0.062282
    130 H60        -2.4820   -2.3630    1.1190 h1        1 MOL      0.062282
    131 H61        -2.1350   -1.8720    3.3750 ho        1 MOL      0.402178
    132 N12        -4.1520    0.4620    0.3840 n         1 MOL     -0.586438
    133 C43        -5.5140    0.4820   -0.0200 c3        1 MOL      0.157840
    134 C44        -5.6260    0.8610   -1.5120 c         1 MOL      0.524356
    135 O18        -4.7670    1.4910   -2.1480 o         1 MOL     -0.541308
    136 C45        -6.3010    1.3840    0.7970 c3        1 MOL     -0.187251
    137 H62        -3.8290    1.0310    1.1540 hn        1 MOL      0.350599
    138 H63        -5.9270   -0.5210    0.0530 h1        1 MOL      0.105062
    139 H64        -5.9490    2.4240    0.8090 hc        1 MOL      0.062861
    140 H65        -7.3290    1.3750    0.4340 hc        1 MOL      0.062861
    141 H66        -6.2310    1.0330    1.8270 hc        1 MOL      0.062861
    142 N13        -6.6710    0.4300   -2.2480 n         1 MOL     -0.502402
    143 C46        -7.9130   -0.2140   -1.8460 c3        1 MOL      0.381980
    144 C47        -9.1610    0.2960   -2.7060 c         1 MOL      0.359846
    145 O19        -8.9630    0.6490   -3.8550 o         1 MOL     -0.515924
    146 C48        -7.6380   -1.7200   -2.0040 c3        1 MOL     -0.342607
    147 H67        -6.7820    0.7600   -3.2020 hn        1 MOL      0.285658
    148 H68        -8.0470    0.0110   -0.7910 h1        1 MOL     -0.053894
    149 H69        -6.9670   -2.0980   -1.2430 hc        1 MOL      0.087668
    150 H70        -8.5680   -2.2700   -1.8660 hc        1 MOL      0.087668
    151 H71        -7.2840   -1.8570   -3.0320 hc        1 MOL      0.087668
    152 N14       -10.3780    0.4050   -2.1670 n         1 MOL     -0.303351
    153 C49       -10.7840    0.1560   -0.7540 c3        1 MOL     -0.169915
    154 C50       -10.1890    1.3100    0.1150 c         1 MOL      0.431614
    155 O20        -9.7590    1.0860    1.2550 o         1 MOL     -0.492685
    156 C51       -12.2580    0.1720   -0.7420 c3        1 MOL      0.020796
    157 C52       -12.9680   -0.1560    0.5900 c3        1 MOL     -0.346842
    158 C53       -14.4700   -0.5730    0.4540 c         1 MOL      0.772572
    159 O21       -15.3270    0.0900    1.0000 o         1 MOL     -0.660711
    160 O22       -14.8170   -1.6690   -0.1160 o         1 MOL     -0.660711
    161 H72       -11.0720    0.6890   -2.8430 hn        1 MOL      0.274727
    162 H73       -10.3830   -0.8210   -0.4850 h1        1 MOL      0.142692
    163 H74       -12.6280   -0.4580   -1.5440 hc        1 MOL      0.031285
    164 H75       -12.6640    1.1500   -1.0040 hc        1 MOL      0.031285
    165 H76       -12.9460    0.7530    1.1830 hc        1 MOL      0.099715
    166 H77       -12.4690   -0.9530    1.1540 hc        1 MOL      0.099715
    167 N15       -10.1910    2.5610   -0.4140 n         1 MOL     -0.276306
    168 C54        -9.4300    3.6690    0.1950 c3        1 MOL     -0.096412
    169 H78        -8.3960    3.6310   -0.1470 h1        1 MOL      0.075303
    170 H79        -9.8740    4.6200   -0.1000 h1        1 MOL      0.075303
    171 H80        -9.4580    3.5760    1.2800 h1        1 MOL      0.075303
    172 H81       -10.4410    2.6590   -1.3840 hn        1 MOL      0.245474
    173 Ca1         2.8780    0.1290   -0.8870 Ca        1 MOL      1.803609
    174 O23         3.7360    1.4280   -3.0730 oh        1 MOL     -0.875478
    175 H82         4.6260    1.7540   -3.1940 ho        1 MOL      0.434675
    176 H83         3.3110    1.5480   -3.9250 ho        1 MOL      0.434675
    177 O24         0.8110    1.2900   -2.5890 oh        1 MOL     -0.875478
    178 H84         0.6870    1.2690   -3.5350 ho        1 MOL      0.434675
    179 H85        -0.0700    1.4290   -2.2280 ho        1 MOL      0.434675
    180 O25         1.0620   -1.8770   -1.1810 oh        1 MOL     -0.875478
    181 H86         1.5430   -2.0470   -1.9890 ho        1 MOL      0.434675
    182 H87         0.2000   -2.2800   -1.3250 ho        1 MOL      0.434675
@<TRIPOS>BOND
     1    1    2 1   
     2    1    4 1   
     3    1    5 1   
     4    1    6 1   
     5    2    3 2   
     6    2    7 1   
     7    7    8 1   
     8    7   15 1   
     9    8    9 1   
    10    8   11 1   
    11    8   16 1   
    12    9   10 2   
    13    9   19 1   
    14   11   12 1   
    15   11   17 1   
    16   11   18 1   
    17   12   13 1   
    18   12   14 1   
    19   19   20 1   
    20   19   28 1   
    21   20   21 1   
    22   20   23 1   
    23   20   29 1   
    24   21   22 2   
    25   21   41 1   
    26   23   24 1   
    27   23   30 1   
    28   23   31 1   
    29   24   25 1   
    30   24   32 1   
    31   24   33 1   
    32   25   26 1   
    33   25   34 1   
    34   25   35 1   
    35   26   27 1   
    36   26   36 1   
    37   26   37 1   
    38   27   38 1   
    39   27   39 1   
    40   27   40 1   
    41   41   42 1   
    42   41   49 1   
    43   42   43 1   
    44   42   45 1   
    45   42   50 1   
    46   43   44 2   
    47   43   53 1   
    48   45   46 1   
    49   45   51 1   
    50   45   52 1   
    51   46   47 1   
    52   46   48 1   
    53   53   54 1   
    54   53   57 1   
    55   54   55 1   
    56   54   58 1   
    57   54   59 1   
    58   55   56 2   
    59   55   60 1   
    60   60   61 1   
    61   60   68 1   
    62   61   62 1   
    63   61   64 1   
    64   61   69 1   
    65   62   63 2   
    66   62   74 1   
    67   64   65 1   
    68   64   70 1   
    69   64   71 1   
    70   65   66 1   
    71   65   67 2   
    72   66   72 1   
    73   66   73 1   
    74   74   75 1   
    75   74   78 1   
    76   75   76 1   
    77   75   79 1   
    78   75   80 1   
    79   76   77 2   
    80   76   81 1   
    81   81   82 1   
    82   81   93 1   
    83   82   83 1   
    84   82   85 1   
    85   82   94 1   
    86   83   84 2   
    87   83  102 1   
    88   85   86 1   
    89   85   95 1   
    90   85   96 1   
    91   86   87 ar  
    92   86   88 ar  
    93   87   89 ar  
    94   87   97 1   
    95   88   90 ar  
    96   88   98 1   
    97   89   91 ar  
    98   89   99 1   
    99   90   91 ar  
   100   90  100 1   
   101   91   92 1   
   102   92  101 1   
   103  102  103 1   
   104  102  110 1   
   105  103  104 1   
   106  103  106 1   
   107  103  111 1   
   108  104  105 2   
   109  104  121 1   
   110  106  107 1   
   111  106  108 1   
   112  106  112 1   
   113  107  109 1   
   114  107  113 1   
   115  107  114 1   
   116  108  115 1   
   117  108  116 1   
   118  108  117 1   
   119  109  118 1   
   120  109  119 1   
   121  109  120 1   
   122  121  122 1   
   123  121  127 1   
   124  122  123 1   
   125  122  125 1   
   126  122  128 1   
   127  123  124 2   
   128  123  132 1   
   129  125  126 1   
   130  125  129 1   
   131  125  130 1   
   132  126  131 1   
   133  132  133 1   
   134  132  137 1   
   135  133  134 1   
   136  133  136 1   
   137  133  138 1   
   138  134  135 2   
   139  134  142 1   
   140  136  139 1   
   141  136  140 1   
   142  136  141 1   
   143  142  143 1   
   144  142  147 1   
   145  143  144 1   
   146  143  146 1   
   147  143  148 1   
   148  144  145 2   
   149  144  152 1   
   150  146  149 1   
   151  146  150 1   
   152  146  151 1   
   153  152  153 1   
   154  152  161 1   
   155  153  154 1   
   156  153  156 1   
   157  153  162 1   
   158  154  155 2   
   159  154  167 1   
   160  156  157 1   
   161  156  163 1   
   162  156  164 1   
   163  157  158 1   
   164  157  165 1   
   165  157  166 1   
   166  158  159 1   
   167  158  160 1   
   168  167  168 1   
   169  167  172 1   
   170  168  169 1   
   171  168  170 1   
   172  168  171 1   
   173  174  175 1   
   174  174  176 1   
   175  177  178 1   
   176  177  179 1   
   177  180  181 1   
   178  180  182 1   
@<TRIPOS>SUBSTRUCTURE
     1 MOL         1 TEMP              0 ****  ****    0 ROOT
