@<TRIPOS>MOLECULE
MOL
  178   175     1     0     0
SMALL
resp


@<TRIPOS>ATOM
      1 C1          2.1610    5.7320   -3.1370 c3        1 MOL     -0.441045
      2 C2          3.0280    5.6880   -1.8490 c         1 MOL      0.754573
      3 O1          2.6150    6.0930   -0.7670 o         1 MOL     -0.606206
      4 H1          2.0810    6.7620   -3.4850 hc        1 MOL      0.110956
      5 H2          2.6270    5.1220   -3.9110 hc        1 MOL      0.110956
      6 H3          1.1650    5.3440   -2.9190 hc        1 MOL      0.110956
      7 N1          4.2560    5.1310   -1.8950 n         1 MOL     -0.663914
      8 C3          5.3300    5.0320   -0.8710 c3        1 MOL      0.269402
      9 C4          5.0690    4.0270    0.2920 c         1 MOL      0.647506
     10 O2          4.5190    2.9200    0.1340 o         1 MOL     -0.605326
     11 C5          6.7410    4.7730   -1.4230 c3        1 MOL     -0.255516
     12 C6          7.1580    5.7790   -2.5330 c         1 MOL      0.757465
     13 O3          6.6000    5.7340   -3.6380 o         1 MOL     -0.729343
     14 O4          8.1420    6.5200   -2.2990 o         1 MOL     -0.729343
     15 H4          4.6220    4.9950   -2.8260 hn        1 MOL      0.301892
     16 H5          5.4600    6.0290   -0.4530 h1        1 MOL      0.010557
     17 H6          6.7360    3.7660   -1.8140 hc        1 MOL      0.025218
     18 H7          7.4340    4.9290   -0.5950 hc        1 MOL      0.025218
     19 N2          5.5390    4.3060    1.5150 n         1 MOL     -0.754072
     20 C7          5.4920    3.3190    2.5720 c3        1 MOL      0.537589
     21 C8          4.0190    3.1400    2.9570 c         1 MOL      0.324389
     22 O5          3.1680    3.9890    2.7940 o         1 MOL     -0.498790
     23 C9          6.3240    3.7960    3.6900 c3        1 MOL     -0.330125
     24 H8          5.9250    5.2180    1.7250 hn        1 MOL      0.342604
     25 H9          5.9170    2.3660    2.2540 h1        1 MOL      0.031175
     26 H10         6.3740    3.0150    4.4520 hc        1 MOL      0.067641
     27 H11         7.3530    3.9550    3.3680 hc        1 MOL      0.067641
     28 H12         5.9080    4.6760    4.1700 hc        1 MOL      0.067641
     29 N3          3.6220    2.0100    3.4920 n         1 MOL     -0.161517
     30 C10         4.4390    0.7790    3.7250 c3        1 MOL     -0.271627
     31 C11         4.5460   -0.0630    2.4660 c         1 MOL      0.125891
     32 O6          3.6570   -0.0680    1.5950 o         1 MOL     -0.338377
     33 C12         3.7690   -0.0170    4.8460 c3        1 MOL     -0.034079
     34 C13         2.2170   -0.1450    4.7720 c         1 MOL      0.732942
     35 O7          1.8080   -0.8310    5.6640 o         1 MOL     -0.687771
     36 O8          1.5530    0.3060    3.7910 o         1 MOL     -0.687771
     37 H13         2.6830    2.0230    3.8510 hn        1 MOL      0.186445
     38 H14         5.4190    1.0050    4.1410 h1        1 MOL      0.116164
     39 H15         4.0060    0.4780    5.7920 hc        1 MOL      0.028024
     40 H16         4.1730   -1.0250    4.9080 hc        1 MOL      0.028024
     41 N4          5.5590   -0.9110    2.3550 n         1 MOL     -0.265063
     42 C14         5.7280   -1.7320    1.2080 c3        1 MOL     -0.028889
     43 C15         6.3880   -1.0010    0.0180 c         1 MOL      0.482036
     44 O9          6.5580    0.2210    0.0500 o         1 MOL     -0.477112
     45 H17         6.2880   -0.7820    3.0470 hn        1 MOL      0.283709
     46 H18         4.7650   -2.0980    0.8630 h1        1 MOL      0.067540
     47 H19         6.2780   -2.6200    1.5170 h1        1 MOL      0.067540
     48 N5          6.7340   -1.7240   -0.9940 n         1 MOL     -0.425679
     49 C16         6.5330   -3.1530   -1.2450 c3        1 MOL     -0.030359
     50 C17         5.2330   -3.5100   -2.0450 c         1 MOL      0.637625
     51 O10         4.9470   -4.6850   -2.3110 o         1 MOL     -0.528686
     52 C18         7.7930   -3.7140   -1.9660 c3        1 MOL     -0.200038
     53 C19         9.1490   -3.5720   -1.3820 c         1 MOL      0.772444
     54 N6         10.1360   -3.3890   -2.1560 n         1 MOL     -0.845164
     55 O11         9.3790   -3.5440   -0.2170 o         1 MOL     -0.573448
     56 H20         7.1460   -1.2250   -1.7720 hn        1 MOL      0.285809
     57 H21         6.5520   -3.6480   -0.2730 h1        1 MOL      0.084239
     58 H22         7.8070   -3.3480   -2.9870 hc        1 MOL      0.055100
     59 H23         7.7070   -4.7930   -2.1050 hc        1 MOL      0.055100
     60 H24         9.9770   -3.4640   -3.1560 hn        1 MOL      0.377906
     61 H25        10.9450   -2.9530   -1.7480 hn        1 MOL      0.377906
     62 N7          4.4690   -2.4650   -2.5670 n         1 MOL     -0.421305
     63 C20         3.4210   -2.6690   -3.5540 c3        1 MOL     -0.183214
     64 C21         2.1020   -3.4260   -3.1130 c         1 MOL      0.538822
     65 O12         1.1380   -3.4140   -3.8640 o         1 MOL     -0.557833
     66 H26         4.7710   -1.5170   -2.3410 hn        1 MOL      0.294850
     67 H27         3.8430   -3.0700   -4.4660 h1        1 MOL      0.112486
     68 H28         3.0370   -1.6710   -3.7870 h1        1 MOL      0.112486
     69 N8          2.0700   -4.0110   -1.9640 n         1 MOL     -0.287233
     70 C22         0.8790   -4.6500   -1.4350 c3        1 MOL     -0.151378
     71 C23        -0.1270   -3.6170   -1.0180 c         1 MOL      0.492399
     72 O13         0.2840   -2.5940   -0.3520 o         1 MOL     -0.512521
     73 C24         1.3130   -5.5600   -0.2440 c3        1 MOL      0.310054
     74 C25         1.9510   -6.7780   -0.8600 c3        1 MOL     -0.489919
     75 O14         2.2730   -4.9780    0.6020 oh        1 MOL     -0.551842
     76 H29         2.9090   -4.0650   -1.4060 hn        1 MOL      0.206808
     77 H30         0.4650   -5.2150   -2.2720 h1        1 MOL      0.119175
     78 H31         0.4300   -5.7810    0.3500 h1        1 MOL      0.051337
     79 H32         1.8890   -4.4780    1.3250 ho        1 MOL      0.364633
     80 H33         2.5640   -7.2530   -0.0840 hc        1 MOL      0.138292
     81 H34         1.2350   -7.4840   -1.2900 hc        1 MOL      0.138292
     82 H35         2.7310   -6.5520   -1.5860 hc        1 MOL      0.138292
     83 N9         -1.4410   -3.9720   -1.1630 n         1 MOL     -0.293760
     84 C26        -2.5510   -3.0850   -1.0870 c3        1 MOL     -0.010188
     85 C27        -3.2120   -3.2910    0.2390 c         1 MOL      0.315602
     86 O15        -3.5850   -4.4220    0.6520 o         1 MOL     -0.557730
     87 C28        -3.5260   -3.1720   -2.3010 c3        1 MOL      0.155559
     88 C29        -4.7840   -2.3140   -2.1610 c3        1 MOL      0.421317
     89 C30        -2.8450   -2.9920   -3.6810 c3        1 MOL     -0.331020
     90 C31        -5.8610   -2.3650   -3.3090 c3        1 MOL     -0.295061
     91 H36        -1.6570   -4.8940   -1.5350 hn        1 MOL      0.237463
     92 H37        -2.1200   -2.0910   -1.1330 h1        1 MOL      0.133693
     93 H38        -4.0120   -4.1490   -2.3150 hc        1 MOL     -0.033997
     94 H39        -4.5770   -1.2800   -1.8890 hc        1 MOL     -0.132518
     95 H40        -5.2900   -2.6370   -1.2530 hc        1 MOL     -0.132518
     96 H41        -2.0190   -3.7010   -3.6930 hc        1 MOL      0.071462
     97 H42        -3.5490   -3.2190   -4.4710 hc        1 MOL      0.071462
     98 H43        -2.4270   -2.0060   -3.8810 hc        1 MOL      0.071462
     99 H44        -5.3990   -1.7860   -4.1110 hc        1 MOL      0.044196
    100 H45        -6.0590   -3.3780   -3.6710 hc        1 MOL      0.044196
    101 H46        -6.7090   -1.8990   -2.8160 hc        1 MOL      0.044196
    102 N10        -3.2880   -2.1620    0.9610 n         1 MOL      0.094198
    103 C32        -3.8990   -2.1770    2.2660 c3        1 MOL      0.051482
    104 C33        -5.2790   -1.5400    2.3640 c         1 MOL      0.275942
    105 O16        -6.0380   -1.8310    3.2610 o         1 MOL     -0.497479
    106 C34        -2.9120   -1.6030    3.3000 c3        1 MOL     -0.260839
    107 C35        -1.6200   -2.3510    3.4330 c         1 MOL      0.703756
    108 O17        -0.6080   -2.0030    2.8040 o         1 MOL     -0.697409
    109 O18        -1.6990   -3.4000    4.1560 o         1 MOL     -0.697409
    110 H47        -2.8910   -1.3100    0.5880 hn        1 MOL     -0.185883
    111 H48        -3.9760   -3.2100    2.6160 h1        1 MOL      0.111170
    112 H49        -3.3720   -1.5190    4.2880 hc        1 MOL      0.073668
    113 H50        -2.7190   -0.6220    2.8610 hc        1 MOL      0.073668
    114 N11        -5.5850   -0.7990    1.3020 n         1 MOL     -0.390103
    115 C36        -6.7830    0.0030    1.1970 c3        1 MOL      0.302624
    116 C37        -6.5080    1.3900    0.5750 c         1 MOL      0.178538
    117 O19        -6.9960    1.7110   -0.4880 o         1 MOL     -0.427151
    118 C38        -7.8460   -0.8640    0.4510 c3        1 MOL     -0.296055
    119 C39        -9.2260   -0.3240    0.2860 ca        1 MOL      0.204427
    120 C40       -10.0310    0.1780    1.3850 ca        1 MOL     -0.254125
    121 C41        -9.8640   -0.3550   -0.9680 ca        1 MOL     -0.254125
    122 C42       -11.3400    0.6440    1.1410 ca        1 MOL     -0.018651
    123 C43       -11.1590    0.1450   -1.1850 ca        1 MOL     -0.018651
    124 C44       -11.9260    0.5800   -0.1100 ca        1 MOL     -0.220876
    125 H51        -4.8320   -0.6810    0.6340 hn        1 MOL      0.398341
    126 H52        -7.3130    0.0330    2.1500 h1        1 MOL      0.033585
    127 H53        -7.9280   -1.8330    0.9490 hc        1 MOL      0.122034
    128 H54        -7.4550   -1.1530   -0.5240 hc        1 MOL      0.122034
    129 H55        -9.6510    0.1560    2.3960 ha        1 MOL      0.130335
    130 H56        -9.2540   -0.6550   -1.8030 ha        1 MOL      0.130335
    131 H57       -11.9260    0.9330    2.0080 ha        1 MOL      0.077116
    132 H58       -11.6750    0.0850   -2.1350 ha        1 MOL      0.077116
    133 H59       -12.9150    0.9460   -0.3010 ha        1 MOL      0.115998
    134 N12        -5.7530    2.2360    1.2770 n         1 MOL      0.003402
    135 C45        -5.3510    3.5850    0.7560 c3        1 MOL      0.051511
    136 C46        -4.7710    3.6780   -0.6360 c         1 MOL      0.252523
    137 O20        -4.9090    4.6760   -1.3080 o         1 MOL     -0.490557
    138 C47        -4.3810    4.1160    1.8560 c3        1 MOL      0.036362
    139 C48        -4.7370    3.4650    3.2010 c3        1 MOL     -0.142978
    140 C49        -5.2740    2.1020    2.5840 c3        1 MOL     -0.109593
    141 H60        -6.2290    4.2260    0.7210 h1        1 MOL      0.044001
    142 H61        -3.4150    3.8030    1.4860 hc        1 MOL      0.028924
    143 H62        -4.4010    5.2010    1.9470 hc        1 MOL      0.028924
    144 H63        -3.9390    3.2530    3.9070 hc        1 MOL      0.059113
    145 H64        -5.5550    4.0530    3.6100 hc        1 MOL      0.059113
    146 H65        -4.3260    1.5690    2.6280 h1        1 MOL      0.085410
    147 H66        -6.0350    1.6770    3.2400 h1        1 MOL      0.085410
    148 N13        -4.1450    2.6090   -1.1310 n         1 MOL     -0.090776
    149 C50        -3.5150    2.5700   -2.4790 c3        1 MOL     -0.167984
    150 C51        -4.5460    2.5860   -3.6240 c         1 MOL      0.459452
    151 O21        -4.2960    3.1720   -4.7020 o         1 MOL     -0.563822
    152 C52        -2.5840    1.3200   -2.6290 c3        1 MOL      0.229966
    153 C53        -1.5980    1.2540   -1.4600 c3        1 MOL     -0.372664
    154 C54        -2.0930    0.5230   -0.2280 c         1 MOL      0.857274
    155 O22        -1.1860    0.1580    0.5580 o         1 MOL     -0.703316
    156 O23        -3.2710    0.2180   -0.0870 o         1 MOL     -0.703316
    157 H67        -4.1260    1.8390   -0.4740 hn        1 MOL      0.164415
    158 H68        -2.8390    3.4210   -2.6210 h1        1 MOL      0.130389
    159 H69        -2.0630    1.4140   -3.5770 hc        1 MOL     -0.050267
    160 H70        -3.2310    0.4420   -2.6960 hc        1 MOL     -0.050267
    161 H71        -1.3230    2.2880   -1.2410 hc        1 MOL      0.092703
    162 H72        -0.6300    0.8510   -1.7390 hc        1 MOL      0.092703
    163 N14        -5.7650    2.0730   -3.3570 n         1 MOL     -0.083645
    164 C55        -6.8850    2.0940   -4.2000 c3        1 MOL     -0.236751
    165 H73        -6.7700    2.8900   -4.9360 h1        1 MOL      0.087813
    166 H74        -6.9740    1.1360   -4.7130 h1        1 MOL      0.087813
    167 H75        -7.7830    2.2750   -3.6090 h1        1 MOL      0.087813
    168 H76        -5.7940    1.7180   -2.4080 hn        1 MOL      0.159336
    169 Ca1         1.0420   -0.7210    1.3660 Ca        1 MOL      1.737191
    170 O24         1.6830   -0.3600   -1.4400 oh        1 MOL     -0.924372
    171 H77         2.5130    0.0460   -1.7150 ho        1 MOL      0.452470
    172 H78         1.2280   -0.5490   -2.2590 ho        1 MOL      0.452470
    173 O25         2.3610   -2.8020    2.5760 oh        1 MOL     -0.924372
    174 H79         3.2670   -3.0060    2.8430 ho        1 MOL      0.452470
    175 H80         1.8160   -3.2640    3.2110 ho        1 MOL      0.452470
    176 O26         1.3480    1.9070    0.5630 oh        1 MOL     -0.924372
    177 H81         2.2180    1.9610    0.1620 ho        1 MOL      0.452470
    178 H82         1.1580    2.8020    0.8420 ho        1 MOL      0.452470
@<TRIPOS>BOND
     1    1    2 1   
     2    1    4 1   
     3    1    5 1   
     4    1    6 1   
     5    2    3 2   
     6    2    7 1   
     7    7    8 1   
     8    7   15 1   
     9    8    9 1   
    10    8   11 1   
    11    8   16 1   
    12    9   10 2   
    13    9   19 1   
    14   11   12 1   
    15   11   17 1   
    16   11   18 1   
    17   12   13 1   
    18   12   14 1   
    19   19   20 1   
    20   19   24 1   
    21   20   21 1   
    22   20   23 1   
    23   20   25 1   
    24   21   22 2   
    25   21   29 1   
    26   23   26 1   
    27   23   27 1   
    28   23   28 1   
    29   29   30 1   
    30   29   37 1   
    31   30   31 1   
    32   30   33 1   
    33   30   38 1   
    34   31   32 2   
    35   31   41 1   
    36   33   34 1   
    37   33   39 1   
    38   33   40 1   
    39   34   35 1   
    40   34   36 1   
    41   41   42 1   
    42   41   45 1   
    43   42   43 1   
    44   42   46 1   
    45   42   47 1   
    46   43   44 2   
    47   43   48 1   
    48   48   49 1   
    49   48   56 1   
    50   49   50 1   
    51   49   52 1   
    52   49   57 1   
    53   50   51 2   
    54   50   62 1   
    55   52   53 1   
    56   52   58 1   
    57   52   59 1   
    58   53   54 1   
    59   53   55 2   
    60   54   60 1   
    61   54   61 1   
    62   62   63 1   
    63   62   66 1   
    64   63   64 1   
    65   63   67 1   
    66   63   68 1   
    67   64   65 2   
    68   64   69 1   
    69   69   70 1   
    70   69   76 1   
    71   70   71 1   
    72   70   73 1   
    73   70   77 1   
    74   71   72 2   
    75   71   83 1   
    76   73   74 1   
    77   73   75 1   
    78   73   78 1   
    79   74   80 1   
    80   74   81 1   
    81   74   82 1   
    82   75   79 1   
    83   83   84 1   
    84   83   91 1   
    85   84   85 1   
    86   84   87 1   
    87   84   92 1   
    88   85   86 2   
    89   85  102 1   
    90   87   88 1   
    91   87   89 1   
    92   87   93 1   
    93   88   90 1   
    94   88   94 1   
    95   88   95 1   
    96   89   96 1   
    97   89   97 1   
    98   89   98 1   
    99   90   99 1   
   100   90  100 1   
   101   90  101 1   
   102  102  103 1   
   103  102  110 1   
   104  103  104 1   
   105  103  106 1   
   106  103  111 1   
   107  104  105 2   
   108  104  114 1   
   109  106  107 1   
   110  106  112 1   
   111  106  113 1   
   112  107  108 1   
   113  107  109 1   
   114  114  115 1   
   115  114  125 1   
   116  115  116 1   
   117  115  118 1   
   118  115  126 1   
   119  116  117 2   
   120  116  134 1   
   121  118  119 1   
   122  118  127 1   
   123  118  128 1   
   124  119  120 ar  
   125  119  121 ar  
   126  120  122 ar  
   127  120  129 1   
   128  121  123 ar  
   129  121  130 1   
   130  122  124 ar  
   131  122  131 1   
   132  123  124 ar  
   133  123  132 1   
   134  124  133 1   
   135  134  135 1   
   136  134  140 1   
   137  135  136 1   
   138  135  138 1   
   139  135  141 1   
   140  136  137 2   
   141  136  148 1   
   142  138  139 1   
   143  138  142 1   
   144  138  143 1   
   145  139  140 1   
   146  139  144 1   
   147  139  145 1   
   148  140  146 1   
   149  140  147 1   
   150  148  149 1   
   151  148  157 1   
   152  149  150 1   
   153  149  152 1   
   154  149  158 1   
   155  150  151 2   
   156  150  163 1   
   157  152  153 1   
   158  152  159 1   
   159  152  160 1   
   160  153  154 1   
   161  153  161 1   
   162  153  162 1   
   163  154  155 1   
   164  154  156 1   
   165  163  164 1   
   166  163  168 1   
   167  164  165 1   
   168  164  166 1   
   169  164  167 1   
   170  170  171 1   
   171  170  172 1   
   172  173  174 1   
   173  173  175 1   
   174  176  177 1   
   175  176  178 1   
@<TRIPOS>SUBSTRUCTURE
     1 MOL         1 TEMP              0 ****  ****    0 ROOT
