@<TRIPOS>MOLECULE
MOL
  191   184     1     0     0
SMALL
resp


@<TRIPOS>ATOM
      1 C1          6.0400    0.2320    5.7130 c3        1 MOL     -0.396677
      2 C2          5.1580    0.2720    4.3800 c         1 MOL      0.687330
      3 O1          4.1490   -0.4230    4.3110 o         1 MOL     -0.633416
      4 H1          5.7840   -0.6550    6.2920 hc        1 MOL      0.099868
      5 H2          7.0970    0.2000    5.4500 hc        1 MOL      0.099868
      6 H3          5.8410    1.1230    6.3080 hc        1 MOL      0.099868
      7 N1          5.7160    0.8590    3.3070 n         1 MOL     -0.418450
      8 C3          5.0470    0.7390    1.9620 c3        1 MOL     -0.339321
      9 C4          5.2560   -0.5830    1.2580 c         1 MOL      0.829947
     10 O2          4.4670   -0.8590    0.3260 o         1 MOL     -0.703734
     11 C5          5.4660    1.8710    1.0790 c3        1 MOL      0.109387
     12 C6          6.9290    2.0530    0.6200 c         1 MOL      0.676147
     13 O3          7.7760    1.2980    1.1380 o         1 MOL     -0.649762
     14 O4          7.1530    2.9920   -0.1930 o         1 MOL     -0.649762
     15 H4          6.6500    1.2310    3.3970 hn        1 MOL      0.280013
     16 H5          3.9830    0.8630    2.1630 h1        1 MOL      0.185406
     17 H6          5.2940    2.8390    1.5650 hc        1 MOL     -0.001655
     18 H7          4.9330    1.9400    0.1280 hc        1 MOL     -0.001655
     19 N2          6.1520   -1.4770    1.6990 n         1 MOL     -0.651248
     20 C7          6.2450   -2.8230    1.0790 c3        1 MOL      0.440246
     21 C8          6.8880   -2.6410   -0.3690 c         1 MOL      0.279737
     22 O5          7.8990   -1.9660   -0.5600 o         1 MOL     -0.455296
     23 C9          6.9530   -3.7660    1.9490 c3        1 MOL     -0.339187
     24 C10         6.1530   -4.0800    3.2330 c3        1 MOL      0.005920
     25 C11         6.9200   -5.0230    4.1640 c3        1 MOL      0.000698
     26 C12         6.1990   -5.2580    5.4800 c3        1 MOL      0.111321
     27 N3          6.9860   -6.2320    6.2130 n4        1 MOL     -0.368392
     28 H8          6.7030   -1.3600    2.5460 hn        1 MOL      0.334888
     29 H9          5.2530   -3.2480    0.9370 h1        1 MOL     -0.047708
     30 H10         7.9070   -3.2910    2.1980 hc        1 MOL      0.099845
     31 H11         7.1880   -4.7100    1.4620 hc        1 MOL      0.099845
     32 H12         5.1140   -4.3160    3.0200 hc        1 MOL      0.028836
     33 H13         6.0760   -3.1460    3.7920 hc        1 MOL      0.028836
     34 H14         7.9400   -4.6930    4.3470 hc        1 MOL      0.026490
     35 H15         6.9270   -5.9790    3.6420 hc        1 MOL      0.026490
     36 H16         5.1660   -5.5400    5.2700 hx        1 MOL      0.059030
     37 H17         6.0770   -4.2990    5.9850 hx        1 MOL      0.059030
     38 H18         7.2360   -7.1030    5.7610 hn        1 MOL      0.303755
     39 H19         7.8410   -5.7920    6.4890 hn        1 MOL      0.303755
     40 H20         6.5060   -6.5830    7.0350 hn        1 MOL      0.303755
     41 N4          6.1890   -3.2840   -1.2250 n         1 MOL     -0.231181
     42 C13         6.5440   -3.1920   -2.6590 c3        1 MOL      0.074493
     43 C14         6.4230   -1.7370   -3.2380 c         1 MOL      0.379840
     44 O6          6.8580   -1.5210   -4.3830 o         1 MOL     -0.505456
     45 C15         5.9070   -4.3430   -3.4430 c3        1 MOL     -0.407516
     46 C16         4.4010   -4.2850   -3.4530 c         1 MOL      0.831889
     47 O7          3.8550   -5.3510   -3.8900 o         1 MOL     -0.714842
     48 O8          3.6850   -3.2800   -3.1280 o         1 MOL     -0.714842
     49 H21         5.4680   -3.8650   -0.8230 hn        1 MOL      0.177064
     50 H22         7.6220   -3.3590   -2.7660 h1        1 MOL      0.087213
     51 H23         6.1810   -5.2310   -2.8700 hc        1 MOL      0.108737
     52 H24         6.1990   -4.3250   -4.4900 hc        1 MOL      0.108737
     53 N5          5.7560   -0.8850   -2.4970 n         1 MOL      0.074129
     54 C17         5.4490    0.4530   -2.9350 c3        1 MOL     -0.325705
     55 C18         6.6510    1.4830   -3.0810 c         1 MOL      0.785066
     56 O9          7.7410    1.0540   -3.2310 o         1 MOL     -0.524252
     57 H25         5.2930   -1.3130   -1.7030 hn        1 MOL      0.043226
     58 H26         4.7750    0.7740   -2.1430 h1        1 MOL      0.078889
     59 H27         4.9810    0.5410   -3.9100 h1        1 MOL      0.078889
     60 N6          6.4850    2.8250   -3.1320 n         1 MOL     -0.782528
     61 C19         5.1690    3.5290   -3.0840 c3        1 MOL      0.648836
     62 C20         5.0330    4.4990   -1.8720 c         1 MOL      0.223010
     63 O10         5.9080    5.3310   -1.6600 o         1 MOL     -0.440131
     64 C21         4.9840    4.1580   -4.4980 c3        1 MOL     -0.458087
     65 C22         3.6920    4.9220   -4.6800 c         1 MOL      0.679054
     66 N7          2.6690    4.2750   -5.1910 n         1 MOL     -0.797242
     67 O11         3.5490    6.1260   -4.2610 o         1 MOL     -0.564443
     68 H28         7.3480    3.3490   -3.1090 hn        1 MOL      0.392143
     69 H29         4.3380    2.8180   -3.0100 h1        1 MOL     -0.062838
     70 H30         4.9070    3.3080   -5.1640 hc        1 MOL      0.120212
     71 H31         5.8450    4.7570   -4.7700 hc        1 MOL      0.120212
     72 H32         2.8370    3.4260   -5.7000 hn        1 MOL      0.365540
     73 H33         1.8050    4.7680   -5.3690 hn        1 MOL      0.365540
     74 N8          3.9210    4.4980   -1.1010 n         1 MOL     -0.255102
     75 C23         2.8110    3.5930   -1.0830 c3        1 MOL     -0.283217
     76 C24         1.8130    3.6950    0.0420 c         1 MOL      0.735632
     77 O12         2.1660    3.7740    1.2210 o         1 MOL     -0.559426
     78 H34         4.0160    5.1730   -0.3560 hn        1 MOL      0.278501
     79 H35         3.2570    2.5980   -1.0450 h1        1 MOL      0.090192
     80 H36         2.3020    3.6990   -2.0380 h1        1 MOL      0.090192
     81 N9          0.4630    3.6130   -0.1720 n         1 MOL     -0.525518
     82 C25        -0.6050    3.8950    0.8460 c3        1 MOL      0.250174
     83 C26        -1.8480    2.9980    0.5980 c         1 MOL      0.373228
     84 O13        -2.0580    2.5180   -0.5160 o         1 MOL     -0.486889
     85 C27        -0.9470    5.3990    0.8110 c3        1 MOL     -0.274232
     86 C28        -1.8250    5.9210    1.9320 ca        1 MOL      0.116342
     87 C29        -3.0780    6.4700    1.7200 ca        1 MOL     -0.177940
     88 C30        -1.3410    5.8030    3.2780 ca        1 MOL     -0.177940
     89 C31        -3.9500    6.8560    2.8040 ca        1 MOL     -0.276629
     90 C32        -2.1670    6.2810    4.3570 ca        1 MOL     -0.276629
     91 C33        -3.4810    6.7450    4.1250 ca        1 MOL      0.355256
     92 O14        -4.3010    7.0960    5.1380 oh        1 MOL     -0.468399
     93 H37         0.2120    3.4760   -1.1440 hn        1 MOL      0.234799
     94 H38        -0.1360    3.6860    1.8000 h1        1 MOL      0.014708
     95 H39        -1.5800    5.6870   -0.0310 hc        1 MOL      0.109078
     96 H40        -0.0670    6.0510    0.7280 hc        1 MOL      0.109078
     97 H41        -3.4820    6.5200    0.7200 ha        1 MOL      0.146402
     98 H42        -0.3430    5.4540    3.4750 ha        1 MOL      0.146402
     99 H43        -4.9300    7.2800    2.6300 ha        1 MOL      0.152609
    100 H44        -1.8100    6.1600    5.3720 ha        1 MOL      0.152609
    101 H45        -3.7490    7.2850    5.9050 ho        1 MOL      0.346000
    102 N10        -2.5920    2.7530    1.7000 n         1 MOL     -0.177388
    103 C34        -3.8240    1.9590    1.6600 c3        1 MOL     -0.005711
    104 C35        -4.8470    2.6510    0.7380 c         1 MOL      0.615142
    105 O15        -4.7520    3.8180    0.4500 o         1 MOL     -0.491164
    106 C36        -4.3160    1.3920    3.0650 c3        1 MOL      0.139592
    107 C37        -3.3360    0.4590    3.7380 c3        1 MOL     -0.041786
    108 C38        -4.6130    2.5810    3.9710 c3        1 MOL     -0.264814
    109 C39        -3.1430   -0.7580    2.8440 c3        1 MOL     -0.041565
    110 H46        -2.3030    3.1340    2.5880 hn        1 MOL      0.172734
    111 H47        -3.4640    1.1500    1.0320 h1        1 MOL     -0.016895
    112 H48        -5.2700    0.8870    2.8940 hc        1 MOL      0.019351
    113 H49        -3.7070    0.2630    4.7420 hc        1 MOL      0.022988
    114 H50        -2.3500    0.9210    3.7870 hc        1 MOL      0.022988
    115 H51        -3.6660    3.1240    4.0490 hc        1 MOL      0.063505
    116 H52        -5.3650    3.1910    3.4760 hc        1 MOL      0.063505
    117 H53        -4.9390    2.2580    4.9490 hc        1 MOL      0.063505
    118 H54        -2.7100   -1.5590    3.4410 hc        1 MOL     -0.003587
    119 H55        -4.1020   -1.1150    2.4530 hc        1 MOL     -0.003587
    120 H56        -2.3810   -0.5010    2.1110 hc        1 MOL     -0.003587
    121 N11        -5.8590    1.8560    0.4340 n         1 MOL     -0.544571
    122 C40        -6.8390    2.1650   -0.6410 c3        1 MOL      0.056426
    123 C41        -6.9520    1.0540   -1.7100 c         1 MOL      0.671210
    124 O16        -6.2960   -0.0130   -1.5720 o         1 MOL     -0.528856
    125 C42        -8.1620    2.4240   -0.0370 c3        1 MOL     -0.058730
    126 O17        -8.8000    1.1690    0.3560 oh        1 MOL     -0.600697
    127 H57        -5.8990    0.9630    0.8890 hn        1 MOL      0.335204
    128 H58        -6.4970    3.0220   -1.2240 h1        1 MOL      0.067253
    129 H59        -8.8580    2.7470   -0.8180 h1        1 MOL      0.086888
    130 H60        -8.1870    3.1260    0.7960 h1        1 MOL      0.086888
    131 H61        -9.4630    1.4060    1.0070 ho        1 MOL      0.422109
    132 N12        -7.7240    1.2630   -2.7630 n         1 MOL     -0.580284
    133 C43        -8.0880    0.2160   -3.6940 c3        1 MOL      0.221894
    134 C44        -8.5290   -1.1360   -3.1480 c         1 MOL      0.373233
    135 O18        -8.2400   -2.1860   -3.7590 o         1 MOL     -0.419497
    136 C45        -6.9650    0.0430   -4.7050 c3        1 MOL     -0.435886
    137 H62        -8.1000    2.1950   -2.8700 hn        1 MOL      0.325597
    138 H63        -8.9630    0.6200   -4.2190 h1        1 MOL      0.053778
    139 H64        -7.1870   -0.7060   -5.4650 hc        1 MOL      0.135095
    140 H65        -6.8540    0.9850   -5.2380 hc        1 MOL      0.135095
    141 H66        -6.0570   -0.1590   -4.1310 hc        1 MOL      0.135095
    142 N13        -9.3200   -1.0660   -2.0280 n         1 MOL     -0.488629
    143 C46        -9.9100   -2.1620   -1.3730 c3        1 MOL      0.377291
    144 C47        -8.9410   -3.2790   -0.8590 c         1 MOL      0.321435
    145 O19        -9.2280   -4.4010   -0.9060 o         1 MOL     -0.403126
    146 C48       -11.0740   -2.6930   -2.1890 c3        1 MOL     -0.355720
    147 H67        -9.5580   -0.1190   -1.7560 hn        1 MOL      0.285236
    148 H68       -10.3390   -1.6700   -0.4930 h1        1 MOL     -0.024450
    149 H69       -11.3640   -3.6520   -1.7670 hc        1 MOL      0.092494
    150 H70       -11.8210   -1.8940   -2.2310 hc        1 MOL      0.092494
    151 H71       -10.7250   -2.8420   -3.2040 hc        1 MOL      0.092494
    152 N14        -7.7130   -2.9070   -0.4430 n         1 MOL     -0.472819
    153 C49        -6.6110   -3.8930   -0.1270 c3        1 MOL      0.109660
    154 C50        -6.9800   -4.8780    1.0240 c         1 MOL      0.311866
    155 O20        -6.7780   -6.0970    0.9820 o         1 MOL     -0.487744
    156 C51        -5.3290   -3.1750    0.0210 c3        1 MOL      0.078567
    157 C52        -4.1630   -4.1690    0.3540 c3        1 MOL     -0.058707
    158 C53        -2.7370   -3.5080    0.0240 c         1 MOL      0.700804
    159 O21        -2.5230   -2.2840   -0.2610 o         1 MOL     -0.739058
    160 O22        -1.7500   -4.2640   -0.0990 o         1 MOL     -0.739058
    161 H72        -7.3480   -1.9780   -0.5530 hn        1 MOL      0.268341
    162 H73        -6.4110   -4.5050   -1.0120 h1        1 MOL      0.109239
    163 H74        -5.3580   -2.3050    0.6810 hc        1 MOL      0.002986
    164 H75        -5.0560   -2.7640   -0.9540 hc        1 MOL      0.002986
    165 H76        -4.3010   -5.0600   -0.2520 hc        1 MOL      0.007474
    166 H77        -4.2330   -4.4430    1.4090 hc        1 MOL      0.007474
    167 N15        -7.3830   -4.2540    2.1270 n         1 MOL     -0.089380
    168 C54        -7.6720   -4.8920    3.4310 c3        1 MOL     -0.427458
    169 H78        -8.0770   -5.8900    3.2650 h1        1 MOL      0.152623
    170 H79        -6.7520   -4.9650    4.0120 h1        1 MOL      0.152623
    171 H80        -8.4000   -4.2910    3.9770 h1        1 MOL      0.152623
    172 H81        -7.5800   -3.2660    2.1420 hn        1 MOL      0.180314
    173 Ca1         0.1770   -2.3910   -0.5690 Ca        1 MOL      1.789390
    174 O23         1.1600   -0.8740    1.4340 oh        1 MOL     -0.882585
    175 O24         2.5470   -1.7320   -1.3170 oh        1 MOL     -0.882585
    176 H82         1.7360   -1.2990    2.0730 ho        1 MOL      0.428816
    177 H83         3.0920   -2.1600   -1.9730 ho        1 MOL      0.428816
    178 H84         0.9360   -0.0360    1.8300 ho        1 MOL      0.428816
    179 H85         3.1700   -1.3590   -0.6850 ho        1 MOL      0.428816
    180 O25         0.6190   -3.7370    1.6260 oh        1 MOL     -0.882585
    181 H86         0.5270   -4.6040    2.0040 ho        1 MOL      0.428816
    182 H87         1.3310   -3.3390    2.1310 ho        1 MOL      0.428816
    183 O26         0.0380   -1.8070   -3.1950 oh        1 MOL     -0.882585
    184 H88         0.8620   -1.8890   -3.6860 ho        1 MOL      0.428816
    185 H89        -0.2490   -0.9070   -3.3700 ho        1 MOL      0.428816
    186 O27         1.7380   -4.5750   -1.2180 oh        1 MOL     -0.882585
    187 H90         2.5340   -4.8920   -1.6430 ho        1 MOL      0.428816
    188 H91         1.3380   -5.3590   -0.8350 ho        1 MOL      0.428816
    189 O28        -0.9310    0.1770   -0.7440 oh        1 MOL     -0.882585
    190 H92        -0.8960    1.0670   -0.4030 ho        1 MOL      0.428816
    191 H93        -1.6920    0.1720   -1.3240 ho        1 MOL      0.428816
@<TRIPOS>BOND
     1    1    2 1   
     2    1    4 1   
     3    1    5 1   
     4    1    6 1   
     5    2    3 2   
     6    2    7 1   
     7    7    8 1   
     8    7   15 1   
     9    8    9 1   
    10    8   11 1   
    11    8   16 1   
    12    9   10 2   
    13    9   19 1   
    14   11   12 1   
    15   11   17 1   
    16   11   18 1   
    17   12   13 1   
    18   12   14 1   
    19   19   20 1   
    20   19   28 1   
    21   20   21 1   
    22   20   23 1   
    23   20   29 1   
    24   21   22 2   
    25   21   41 1   
    26   23   24 1   
    27   23   30 1   
    28   23   31 1   
    29   24   25 1   
    30   24   32 1   
    31   24   33 1   
    32   25   26 1   
    33   25   34 1   
    34   25   35 1   
    35   26   27 1   
    36   26   36 1   
    37   26   37 1   
    38   27   38 1   
    39   27   39 1   
    40   27   40 1   
    41   41   42 1   
    42   41   49 1   
    43   42   43 1   
    44   42   45 1   
    45   42   50 1   
    46   43   44 2   
    47   43   53 1   
    48   45   46 1   
    49   45   51 1   
    50   45   52 1   
    51   46   47 1   
    52   46   48 1   
    53   53   54 1   
    54   53   57 1   
    55   54   55 1   
    56   54   58 1   
    57   54   59 1   
    58   55   56 2   
    59   55   60 1   
    60   60   61 1   
    61   60   68 1   
    62   61   62 1   
    63   61   64 1   
    64   61   69 1   
    65   62   63 2   
    66   62   74 1   
    67   64   65 1   
    68   64   70 1   
    69   64   71 1   
    70   65   66 1   
    71   65   67 2   
    72   66   72 1   
    73   66   73 1   
    74   74   75 1   
    75   74   78 1   
    76   75   76 1   
    77   75   79 1   
    78   75   80 1   
    79   76   77 2   
    80   76   81 1   
    81   81   82 1   
    82   81   93 1   
    83   82   83 1   
    84   82   85 1   
    85   82   94 1   
    86   83   84 2   
    87   83  102 1   
    88   85   86 1   
    89   85   95 1   
    90   85   96 1   
    91   86   87 ar  
    92   86   88 ar  
    93   87   89 ar  
    94   87   97 1   
    95   88   90 ar  
    96   88   98 1   
    97   89   91 ar  
    98   89   99 1   
    99   90   91 ar  
   100   90  100 1   
   101   91   92 1   
   102   92  101 1   
   103  102  103 1   
   104  102  110 1   
   105  103  104 1   
   106  103  106 1   
   107  103  111 1   
   108  104  105 2   
   109  104  121 1   
   110  106  107 1   
   111  106  108 1   
   112  106  112 1   
   113  107  109 1   
   114  107  113 1   
   115  107  114 1   
   116  108  115 1   
   117  108  116 1   
   118  108  117 1   
   119  109  118 1   
   120  109  119 1   
   121  109  120 1   
   122  121  122 1   
   123  121  127 1   
   124  122  123 1   
   125  122  125 1   
   126  122  128 1   
   127  123  124 2   
   128  123  132 1   
   129  125  126 1   
   130  125  129 1   
   131  125  130 1   
   132  126  131 1   
   133  132  133 1   
   134  132  137 1   
   135  133  134 1   
   136  133  136 1   
   137  133  138 1   
   138  134  135 2   
   139  134  142 1   
   140  136  139 1   
   141  136  140 1   
   142  136  141 1   
   143  142  143 1   
   144  142  147 1   
   145  143  144 1   
   146  143  146 1   
   147  143  148 1   
   148  144  145 2   
   149  144  152 1   
   150  146  149 1   
   151  146  150 1   
   152  146  151 1   
   153  152  153 1   
   154  152  161 1   
   155  153  154 1   
   156  153  156 1   
   157  153  162 1   
   158  154  155 2   
   159  154  167 1   
   160  156  157 1   
   161  156  163 1   
   162  156  164 1   
   163  157  158 1   
   164  157  165 1   
   165  157  166 1   
   166  158  159 1   
   167  158  160 1   
   168  167  168 1   
   169  167  172 1   
   170  168  169 1   
   171  168  170 1   
   172  168  171 1   
   173  174  176 1   
   174  174  178 1   
   175  175  177 1   
   176  175  179 1   
   177  180  181 1   
   178  180  182 1   
   179  183  184 1   
   180  183  185 1   
   181  186  187 1   
   182  186  188 1   
   183  189  190 1   
   184  189  191 1   
@<TRIPOS>SUBSTRUCTURE
     1 MOL         1 TEMP              0 ****  ****    0 ROOT
