@<TRIPOS>MOLECULE
MOL
  179   176     1     0     0
SMALL
resp


@<TRIPOS>ATOM
      1 C1          0.1790   -4.5490    5.5170 c3        1 MOL     -0.341232
      2 C2          0.3000   -4.2190    3.9920 c         1 MOL      0.717509
      3 O1         -0.6580   -4.2930    3.2120 o         1 MOL     -0.602081
      4 H1          0.6780   -3.7730    6.0980 hc        1 MOL      0.099820
      5 H2         -0.8730   -4.5920    5.7980 hc        1 MOL      0.099820
      6 H3          0.6490   -5.5120    5.7200 hc        1 MOL      0.099820
      7 N1          1.4930   -3.8910    3.5200 n         1 MOL     -0.574757
      8 C3          1.8660   -3.4540    2.1610 c3        1 MOL      0.210606
      9 C4          2.0910   -4.5700    1.1460 c         1 MOL      0.460768
     10 O2          2.4940   -5.6470    1.5910 o         1 MOL     -0.541935
     11 C5          3.0940   -2.5330    2.3840 c3        1 MOL     -0.060062
     12 C6          3.3470   -1.5690    1.2170 c         1 MOL      0.552336
     13 O3          3.9930   -0.4720    1.3660 o         1 MOL     -0.640482
     14 O4          3.0470   -1.9340    0.0710 o         1 MOL     -0.640482
     15 H4          2.2960   -3.8890    4.1400 hn        1 MOL      0.300007
     16 H5          1.0940   -2.8270    1.7390 h1        1 MOL     -0.124894
     17 H6          3.8970   -3.2620    2.4470 hc        1 MOL      0.039623
     18 H7          2.9970   -1.9210    3.2820 hc        1 MOL      0.039623
     19 N2          1.8850   -4.3420   -0.1620 n         1 MOL     -0.221471
     20 C7          2.1100   -5.2760   -1.1980 c3        1 MOL      0.033131
     21 C8          3.3990   -5.1620   -2.0590 c         1 MOL      0.471620
     22 O5          3.8290   -6.0800   -2.7080 o         1 MOL     -0.542682
     23 C9          0.8290   -5.2460   -2.0790 c3        1 MOL     -0.095579
     24 C10        -0.4830   -5.7760   -1.4850 c3        1 MOL     -0.141455
     25 C11        -0.4850   -7.1900   -0.8350 c3        1 MOL      0.062388
     26 C12        -1.7850   -7.4550   -0.1610 c3        1 MOL     -0.016942
     27 N3         -1.7440   -8.6240    0.7730 n4        1 MOL     -0.219913
     28 H8          1.6490   -3.4030   -0.4550 hn        1 MOL      0.233449
     29 H9          2.2180   -6.2570   -0.7230 h1        1 MOL      0.052089
     30 H10         1.0760   -5.9780   -2.8500 hc        1 MOL      0.053900
     31 H11         0.7980   -4.2740   -2.5640 hc        1 MOL      0.053900
     32 H12        -1.2880   -5.7670   -2.2180 hc        1 MOL      0.057997
     33 H13        -0.8160   -5.0570   -0.7380 hc        1 MOL      0.057997
     34 H14         0.3620   -7.3130   -0.1580 hc        1 MOL      0.027274
     35 H15        -0.2610   -7.9660   -1.5720 hc        1 MOL      0.027274
     36 H16        -2.5760   -7.6160   -0.8890 hx        1 MOL      0.088261
     37 H17        -2.0180   -6.5670    0.4360 hx        1 MOL      0.088261
     38 H18        -1.2660   -9.4060    0.3310 hn        1 MOL      0.238919
     39 H19        -1.2080   -8.4930    1.6080 hn        1 MOL      0.238919
     40 H20        -2.6540   -8.8770    1.1270 hn        1 MOL      0.238919
     41 N4          4.0250   -4.0160   -2.0170 n         1 MOL     -0.260768
     42 C13         5.3850   -3.6820   -2.5670 c3        1 MOL      0.156286
     43 C14         6.4090   -3.3290   -1.4550 c         1 MOL      0.367983
     44 O6          7.6150   -3.4980   -1.7100 o         1 MOL     -0.540585
     45 C15         5.1580   -2.5810   -3.5860 c3        1 MOL     -0.296582
     46 C16         4.4570   -1.3600   -2.9520 c         1 MOL      0.858063
     47 O7          5.0300   -0.7390   -2.0190 o         1 MOL     -0.789866
     48 O8          3.2380   -1.0750   -3.2440 o         1 MOL     -0.789866
     49 H21         3.5820   -3.2700   -1.4950 hn        1 MOL      0.135741
     50 H22         5.7840   -4.5560   -3.0870 h1        1 MOL      0.092820
     51 H23         4.4660   -3.0310   -4.2930 hc        1 MOL      0.077872
     52 H24         6.0590   -2.2760   -4.1260 hc        1 MOL      0.077872
     53 N5          6.0170   -2.8870   -0.2720 n         1 MOL     -0.132410
     54 C17         6.9830   -2.6030    0.8220 c3        1 MOL     -0.341205
     55 C18         7.6500   -1.1990    0.9190 c         1 MOL      0.577579
     56 O9          8.4060   -1.0050    1.8370 o         1 MOL     -0.537471
     57 H25         5.0430   -2.6300   -0.2190 hn        1 MOL      0.092994
     58 H26         7.7770   -3.3530    0.7770 h1        1 MOL      0.162222
     59 H27         6.4490   -2.7260    1.7600 h1        1 MOL      0.162222
     60 N6          7.1820   -0.2470    0.0560 n         1 MOL     -0.241581
     61 C19         7.5220    1.1990    0.1410 c3        1 MOL      0.062170
     62 C20         6.2890    2.2050    0.1960 c         1 MOL      0.522630
     63 O10         5.1620    1.8570   -0.1670 o         1 MOL     -0.525401
     64 C21         8.4190    1.5320   -1.1240 c3        1 MOL     -0.305015
     65 C22         7.6930    1.7930   -2.4660 c         1 MOL      0.605293
     66 N7          7.6930    0.9970   -3.4830 n         1 MOL     -0.684799
     67 O11         7.0500    2.8090   -2.5020 o         1 MOL     -0.572631
     68 H28         6.4870   -0.4960   -0.6310 hn        1 MOL      0.232448
     69 H29         8.2170    1.2530    0.9730 h1        1 MOL      0.061378
     70 H30         9.2090    0.7830   -1.2320 hc        1 MOL      0.101060
     71 H31         8.8910    2.4910   -0.9160 hc        1 MOL      0.101060
     72 H32         8.3070    0.1890   -3.4540 hn        1 MOL      0.360563
     73 H33         7.2070    1.2070   -4.3390 hn        1 MOL      0.360563
     74 N8          6.5300    3.4810    0.5770 n         1 MOL     -0.447573
     75 C23         5.6150    4.5880    0.4520 c3        1 MOL     -0.008106
     76 C24         4.2900    4.5500    1.2870 c         1 MOL      0.551683
     77 O12         4.2670    4.4100    2.5070 o         1 MOL     -0.509411
     78 H34         7.4230    3.7730    0.9460 hn        1 MOL      0.317719
     79 H35         5.4180    4.7130   -0.6100 h1        1 MOL      0.067254
     80 H36         6.1870    5.4700    0.7560 h1        1 MOL      0.067254
     81 N9          3.1520    4.7900    0.6520 n         1 MOL     -0.539823
     82 C25         1.7870    4.6780    1.2130 c3        1 MOL      0.273990
     83 C26         1.4260    3.1460    1.2530 c         1 MOL      0.608917
     84 O13         2.1100    2.3270    0.6570 o         1 MOL     -0.493224
     85 C27         0.8420    5.5070    0.3610 c3        1 MOL     -0.235024
     86 C28         1.1690    6.9840    0.2470 ca        1 MOL      0.143390
     87 C29         0.8830    7.8890    1.2550 ca        1 MOL     -0.185815
     88 C30         1.8730    7.4380   -0.8780 ca        1 MOL     -0.185815
     89 C31         1.0570    9.2830    1.0540 ca        1 MOL     -0.254732
     90 C32         2.0880    8.8090   -1.1720 ca        1 MOL     -0.254732
     91 C33         1.7160    9.7720   -0.1530 ca        1 MOL      0.320027
     92 O14         1.9700   11.1370   -0.2820 oh        1 MOL     -0.477260
     93 H37         3.1800    5.0190   -0.3340 hn        1 MOL      0.247969
     94 H38         1.7160    5.1510    2.2040 h1        1 MOL      0.037492
     95 H39        -0.1600    5.4510    0.7940 hc        1 MOL      0.069395
     96 H40         0.7800    5.1360   -0.6600 hc        1 MOL      0.069395
     97 H41         0.3830    7.5390    2.1490 ha        1 MOL      0.137661
     98 H42         2.0880    6.7320   -1.6560 ha        1 MOL      0.137661
     99 H43         0.8390    9.9790    1.8510 ha        1 MOL      0.163601
    100 H44         2.7210    9.1980   -1.9670 ha        1 MOL      0.163601
    101 H45         1.8110   11.6190    0.5300 ho        1 MOL      0.370363
    102 N10         0.3650    2.6850    1.8870 n         1 MOL     -0.796575
    103 C34        -0.0430    1.3130    2.3160 c3        1 MOL      0.069578
    104 C35        -0.2770    0.3730    1.0840 c         1 MOL      0.766043
    105 O15         0.6890    0.0530    0.3000 o         1 MOL     -0.619029
    106 C36         0.9340    0.8100    3.4120 c3        1 MOL      0.406864
    107 C37         0.6140   -0.5320    4.1470 c3        1 MOL     -0.252003
    108 C38         1.4410    1.8650    4.4650 c3        1 MOL     -0.352498
    109 C39        -0.6660   -0.4940    5.0080 c3        1 MOL     -0.167578
    110 H46        -0.3720    3.3290    2.1280 hn        1 MOL      0.360848
    111 H47        -1.0010    1.3740    2.8300 h1        1 MOL      0.036921
    112 H48         1.8280    0.5570    2.8510 hc        1 MOL     -0.042200
    113 H49         1.5220   -0.8360    4.6650 hc        1 MOL      0.102906
    114 H50         0.3460   -1.0980    3.2570 hc        1 MOL      0.102906
    115 H51         0.6030    2.2570    5.0490 hc        1 MOL      0.086790
    116 H52         2.1450    1.4060    5.1580 hc        1 MOL      0.086790
    117 H53         2.0490    2.6600    4.0380 hc        1 MOL      0.086790
    118 H54        -0.5650    0.2500    5.8000 hc        1 MOL      0.044401
    119 H55        -1.6120   -0.1660    4.5750 hc        1 MOL      0.044401
    120 H56        -0.8090   -1.4810    5.4460 hc        1 MOL      0.044401
    121 N11        -1.4950   -0.1830    0.9350 n         1 MOL     -0.633459
    122 C40        -1.9190   -1.2780    0.0580 c3        1 MOL      0.036311
    123 C41        -3.3830   -1.1200   -0.3780 c         1 MOL      0.655121
    124 O16        -3.8690   -1.9110   -1.1930 o         1 MOL     -0.587914
    125 C42        -1.8400   -2.5800    0.8090 c3        1 MOL      0.294271
    126 O17        -2.3600   -2.5240    2.1340 oh        1 MOL     -0.603711
    127 H57        -2.1770    0.1300    1.6080 hn        1 MOL      0.321083
    128 H58        -1.2760   -1.3830   -0.8110 h1        1 MOL      0.105664
    129 H59        -0.7800   -2.8460    0.8720 h1        1 MOL     -0.031663
    130 H60        -2.3300   -3.3760    0.2410 h1        1 MOL     -0.031663
    131 H61        -2.2230   -3.4080    2.4870 ho        1 MOL      0.394457
    132 N12        -4.1110   -0.0510   -0.0190 n         1 MOL     -0.546208
    133 C43        -5.4710    0.2150   -0.4730 c3        1 MOL      0.105360
    134 C44        -5.4870    0.7950   -1.8260 c         1 MOL      0.706002
    135 O18        -4.5880    1.5630   -2.1550 o         1 MOL     -0.578888
    136 C45        -6.2770    1.0310    0.5670 c3        1 MOL     -0.268025
    137 H62        -3.7900    0.5040    0.7600 hn        1 MOL      0.270984
    138 H63        -6.0210   -0.7280   -0.4840 h1        1 MOL      0.089762
    139 H64        -5.7930    1.9280    0.9510 hc        1 MOL      0.092641
    140 H65        -7.1810    1.3860    0.0840 hc        1 MOL      0.092641
    141 H66        -6.5460    0.4130    1.4150 hc        1 MOL      0.092641
    142 N13        -6.5810    0.4980   -2.6020 n         1 MOL     -0.766677
    143 C46        -7.8750   -0.0860   -2.2330 c3        1 MOL      0.703210
    144 C47        -9.0680    0.6520   -2.8980 c         1 MOL      0.142523
    145 O19        -8.9100    1.0950   -4.0860 o         1 MOL     -0.486273
    146 C48        -7.8000   -1.5950   -2.7600 c3        1 MOL     -0.313306
    147 H67        -6.5600    0.8070   -3.5640 hn        1 MOL      0.338671
    148 H68        -8.0460   -0.0850   -1.1590 h1        1 MOL     -0.113963
    149 H69        -6.9030   -2.0020   -2.3020 hc        1 MOL      0.078778
    150 H70        -8.5680   -2.1130   -2.2050 hc        1 MOL      0.078778
    151 H71        -7.7810   -1.5990   -3.8540 hc        1 MOL      0.078778
    152 N14       -10.2970    0.7730   -2.3090 n         1 MOL     -0.274009
    153 C49       -10.7690    0.3910   -0.9630 c3        1 MOL     -0.093582
    154 C50       -10.0030    1.2820    0.1500 c         1 MOL      0.405359
    155 O20        -9.4660    0.7750    1.0970 o         1 MOL     -0.519514
    156 C51       -12.2440    0.5210   -0.8540 c3        1 MOL     -0.076983
    157 C52       -12.7910   -0.2950    0.3870 c3        1 MOL     -0.153811
    158 C53       -14.3530   -0.2500    0.5190 c         1 MOL      0.656334
    159 O21       -14.9770   -1.2680    0.8580 o         1 MOL     -0.635437
    160 O22       -14.8850    0.8520    0.6420 o         1 MOL     -0.635437
    161 H72       -10.9280    1.3320   -2.8630 hn        1 MOL      0.277274
    162 H73       -10.5120   -0.6540   -0.8040 h1        1 MOL      0.116723
    163 H74       -12.7110    0.0870   -1.7380 hc        1 MOL      0.033152
    164 H75       -12.5270    1.5800   -0.8120 hc        1 MOL      0.033152
    165 H76       -12.2890   -0.0290    1.3130 hc        1 MOL      0.050961
    166 H77       -12.5240   -1.3350    0.2060 hc        1 MOL      0.050961
    167 N15        -9.9150    2.5820   -0.0270 n         1 MOL     -0.169192
    168 C54        -9.1850    3.5100    0.8920 c3        1 MOL     -0.202513
    169 H78        -8.2050    3.7380    0.4740 h1        1 MOL      0.097533
    170 H79        -9.7550    4.4320    1.0060 h1        1 MOL      0.097533
    171 H80        -9.0620    3.0360    1.8660 h1        1 MOL      0.097533
    172 H81       -10.3550    3.0410   -0.8050 hn        1 MOL      0.235178
    173 Ca1         2.9460    0.5320   -1.0550 Ca        1 MOL      1.739446
    174 O23         1.0790    1.9130   -2.1670 oh        1 MOL     -0.910655
    175 H82         0.3320    1.4090   -2.4570 ho        1 MOL      0.444553
    176 H83         1.0780    2.6880   -2.7280 ho        1 MOL      0.444553
    177 O24         4.3270    2.1990   -2.7740 oh        1 MOL     -0.910655
    178 H84         5.2650    2.2670   -2.6010 ho        1 MOL      0.444553
    179 H85         4.0690    3.0840   -3.0340 ho        1 MOL      0.444553
@<TRIPOS>BOND
     1    1    2 1   
     2    1    4 1   
     3    1    5 1   
     4    1    6 1   
     5    2    3 2   
     6    2    7 1   
     7    7    8 1   
     8    7   15 1   
     9    8    9 1   
    10    8   11 1   
    11    8   16 1   
    12    9   10 2   
    13    9   19 1   
    14   11   12 1   
    15   11   17 1   
    16   11   18 1   
    17   12   13 1   
    18   12   14 1   
    19   19   20 1   
    20   19   28 1   
    21   20   21 1   
    22   20   23 1   
    23   20   29 1   
    24   21   22 2   
    25   21   41 1   
    26   23   24 1   
    27   23   30 1   
    28   23   31 1   
    29   24   25 1   
    30   24   32 1   
    31   24   33 1   
    32   25   26 1   
    33   25   34 1   
    34   25   35 1   
    35   26   27 1   
    36   26   36 1   
    37   26   37 1   
    38   27   38 1   
    39   27   39 1   
    40   27   40 1   
    41   41   42 1   
    42   41   49 1   
    43   42   43 1   
    44   42   45 1   
    45   42   50 1   
    46   43   44 2   
    47   43   53 1   
    48   45   46 1   
    49   45   51 1   
    50   45   52 1   
    51   46   47 1   
    52   46   48 1   
    53   53   54 1   
    54   53   57 1   
    55   54   55 1   
    56   54   58 1   
    57   54   59 1   
    58   55   56 2   
    59   55   60 1   
    60   60   61 1   
    61   60   68 1   
    62   61   62 1   
    63   61   64 1   
    64   61   69 1   
    65   62   63 2   
    66   62   74 1   
    67   64   65 1   
    68   64   70 1   
    69   64   71 1   
    70   65   66 1   
    71   65   67 2   
    72   66   72 1   
    73   66   73 1   
    74   74   75 1   
    75   74   78 1   
    76   75   76 1   
    77   75   79 1   
    78   75   80 1   
    79   76   77 2   
    80   76   81 1   
    81   81   82 1   
    82   81   93 1   
    83   82   83 1   
    84   82   85 1   
    85   82   94 1   
    86   83   84 2   
    87   83  102 1   
    88   85   86 1   
    89   85   95 1   
    90   85   96 1   
    91   86   87 ar  
    92   86   88 ar  
    93   87   89 ar  
    94   87   97 1   
    95   88   90 ar  
    96   88   98 1   
    97   89   91 ar  
    98   89   99 1   
    99   90   91 ar  
   100   90  100 1   
   101   91   92 1   
   102   92  101 1   
   103  102  103 1   
   104  102  110 1   
   105  103  104 1   
   106  103  106 1   
   107  103  111 1   
   108  104  105 2   
   109  104  121 1   
   110  106  107 1   
   111  106  108 1   
   112  106  112 1   
   113  107  109 1   
   114  107  113 1   
   115  107  114 1   
   116  108  115 1   
   117  108  116 1   
   118  108  117 1   
   119  109  118 1   
   120  109  119 1   
   121  109  120 1   
   122  121  122 1   
   123  121  127 1   
   124  122  123 1   
   125  122  125 1   
   126  122  128 1   
   127  123  124 2   
   128  123  132 1   
   129  125  126 1   
   130  125  129 1   
   131  125  130 1   
   132  126  131 1   
   133  132  133 1   
   134  132  137 1   
   135  133  134 1   
   136  133  136 1   
   137  133  138 1   
   138  134  135 2   
   139  134  142 1   
   140  136  139 1   
   141  136  140 1   
   142  136  141 1   
   143  142  143 1   
   144  142  147 1   
   145  143  144 1   
   146  143  146 1   
   147  143  148 1   
   148  144  145 2   
   149  144  152 1   
   150  146  149 1   
   151  146  150 1   
   152  146  151 1   
   153  152  153 1   
   154  152  161 1   
   155  153  154 1   
   156  153  156 1   
   157  153  162 1   
   158  154  155 2   
   159  154  167 1   
   160  156  157 1   
   161  156  163 1   
   162  156  164 1   
   163  157  158 1   
   164  157  165 1   
   165  157  166 1   
   166  158  159 1   
   167  158  160 1   
   168  167  168 1   
   169  167  172 1   
   170  168  169 1   
   171  168  170 1   
   172  168  171 1   
   173  174  175 1   
   174  174  176 1   
   175  177  178 1   
   176  177  179 1   
@<TRIPOS>SUBSTRUCTURE
     1 MOL         1 TEMP              0 ****  ****    0 ROOT
