@<TRIPOS>MOLECULE
MOL
  181   177     1     0     0
SMALL
resp


@<TRIPOS>ATOM
      1 C1         -1.1830    5.7620    1.9920 c3        1 MOL     -0.468540
      2 C2         -2.4280    5.9780    1.0800 c         1 MOL      0.646957
      3 O1         -2.3970    6.6630    0.0400 o         1 MOL     -0.551615
      4 H1         -0.8630    6.7200    2.4020 hc        1 MOL      0.122936
      5 H2         -1.4410    5.0870    2.8080 hc        1 MOL      0.122936
      6 H3         -0.3730    5.3300    1.4040 hc        1 MOL      0.122936
      7 N1         -3.6120    5.4500    1.5640 n         1 MOL     -0.549080
      8 C3         -5.0220    5.8440    1.1040 c3        1 MOL      0.234311
      9 C4         -5.4860    4.7240    0.0840 c         1 MOL      0.528619
     10 O2         -6.5580    4.2170    0.2160 o         1 MOL     -0.472135
     11 C5         -6.0040    6.0270    2.3420 c3        1 MOL     -0.253586
     12 C6         -7.4720    6.2930    1.9560 c         1 MOL      0.779380
     13 O3         -8.3230    5.5380    2.5240 o         1 MOL     -0.746041
     14 O4         -7.7850    7.2940    1.2940 o         1 MOL     -0.746041
     15 H4         -3.5480    4.8620    2.3810 hn        1 MOL      0.290751
     16 H5         -5.0700    6.8410    0.6680 h1        1 MOL      0.034350
     17 H6         -5.7120    6.9490    2.8340 hc        1 MOL      0.022436
     18 H7         -6.0570    5.1720    3.0210 hc        1 MOL      0.022436
     19 N2         -4.6340    4.4590   -0.9320 n         1 MOL     -0.688107
     20 C7         -4.7400    3.4950   -1.9970 c3        1 MOL      0.799673
     21 C8         -3.4170    2.8280   -2.3550 c         1 MOL      0.215052
     22 O5         -2.3410    3.4250   -2.1880 o         1 MOL     -0.506457
     23 C9         -5.4670    4.1200   -3.2070 c3        1 MOL     -0.288242
     24 H8         -3.7660    4.9520   -0.7940 hn        1 MOL      0.229311
     25 H9         -5.3710    2.7150   -1.5640 h1        1 MOL     -0.136496
     26 H10        -6.0840    3.3010   -3.5850 hc        1 MOL      0.057398
     27 H11        -5.9860    5.0470   -2.9940 hc        1 MOL      0.057398
     28 H12        -4.7770    4.3420   -4.0160 hc        1 MOL      0.057398
     29 N3         -3.3670    1.5710   -2.8620 n         1 MOL     -0.157403
     30 C10        -4.5580    0.7480   -3.2700 c3        1 MOL     -0.364727
     31 C11        -5.2930    0.1690   -2.0570 c         1 MOL      0.571628
     32 O6         -4.7300   -0.4940   -1.1790 o         1 MOL     -0.459498
     33 C12        -4.0430   -0.3220   -4.2580 c3        1 MOL     -0.195096
     34 C13        -2.8400   -1.2010   -3.8500 c         1 MOL      0.657007
     35 O7         -1.9730   -0.8330   -3.0570 o         1 MOL     -0.677184
     36 O8         -2.6980   -2.1950   -4.5560 o         1 MOL     -0.677184
     37 H13        -2.4890    1.2250   -3.2090 hn        1 MOL      0.263451
     38 H14        -5.2020    1.4370   -3.8120 h1        1 MOL      0.111757
     39 H15        -3.8260    0.0860   -5.2480 hc        1 MOL      0.082396
     40 H16        -4.8150   -1.0580   -4.4740 hc        1 MOL      0.082396
     41 N4         -6.5280    0.5720   -1.8610 n         1 MOL     -0.363706
     42 C14        -7.3550   -0.1080   -0.9070 c3        1 MOL      0.003924
     43 C15        -7.1050    0.1150    0.6100 c         1 MOL      0.535653
     44 O9         -7.1010    1.2940    1.0030 o         1 MOL     -0.460326
     45 H17        -7.0300    1.2330   -2.4430 hn        1 MOL      0.307814
     46 H18        -7.3380   -1.1470   -1.2350 h1        1 MOL      0.035848
     47 H19        -8.3940    0.1050   -1.1390 h1        1 MOL      0.035848
     48 N5         -6.8090   -0.8610    1.4690 n         1 MOL     -0.507797
     49 C16        -6.5870   -2.2530    1.1240 c3        1 MOL      0.149617
     50 C17        -5.6870   -2.9270    2.1420 c         1 MOL      0.510763
     51 O10        -5.8030   -2.5580    3.2630 o         1 MOL     -0.499924
     52 C18        -7.8860   -2.9720    1.0230 c3        1 MOL     -0.065010
     53 C19        -8.8910   -2.5820   -0.0540 c         1 MOL      0.604787
     54 N6         -8.8530   -3.1690   -1.2330 n         1 MOL     -0.759225
     55 O11        -9.6740   -1.6520    0.2150 o         1 MOL     -0.530791
     56 H20        -6.4630   -0.5460    2.3590 hn        1 MOL      0.323703
     57 H21        -6.0870   -2.3640    0.1590 h1        1 MOL     -0.039189
     58 H22        -8.4730   -3.0360    1.9380 hc        1 MOL     -0.002500
     59 H23        -7.5440   -3.9610    0.7190 hc        1 MOL     -0.002500
     60 H24        -8.1370   -3.8610   -1.4180 hn        1 MOL      0.367959
     61 H25        -9.4580   -2.7500   -1.9230 hn        1 MOL      0.367959
     62 N7         -4.8220   -3.8850    1.8190 n         1 MOL     -0.220377
     63 C20        -4.3830   -4.8650    2.8110 c3        1 MOL     -0.321263
     64 C21        -2.9880   -5.3100    2.7410 c         1 MOL      0.625660
     65 O12        -2.6590   -6.3140    3.3250 o         1 MOL     -0.578010
     66 H26        -4.7620   -4.1840    0.8530 hn        1 MOL      0.240397
     67 H27        -5.0330   -5.7320    2.6670 h1        1 MOL      0.150240
     68 H28        -4.4890   -4.2930    3.7420 h1        1 MOL      0.150240
     69 N8         -2.1920   -4.7330    1.8250 n         1 MOL     -0.297846
     70 C22        -0.8560   -5.2240    1.3640 c3        1 MOL     -0.163764
     71 C23         0.1430   -4.1050    1.1220 c         1 MOL      0.524221
     72 O13        -0.1890   -3.0140    0.7480 o         1 MOL     -0.503295
     73 C24        -1.0320   -6.1480    0.1060 c3        1 MOL      0.409444
     74 C25        -1.6010   -7.5300    0.5250 c3        1 MOL     -0.550565
     75 O14        -2.0150   -5.5830   -0.8360 oh        1 MOL     -0.680439
     76 H29        -2.5570   -3.9020    1.3830 hn        1 MOL      0.205646
     77 H30        -0.4870   -5.9190    2.1220 h1        1 MOL      0.114283
     78 H31        -0.0990   -6.3900   -0.4110 h1        1 MOL      0.020284
     79 H32        -2.2960   -6.2460   -1.4850 ho        1 MOL      0.422539
     80 H33        -1.1330   -7.9200    1.4290 hc        1 MOL      0.149118
     81 H34        -2.6770   -7.4650    0.6840 hc        1 MOL      0.149118
     82 H35        -1.4750   -8.2180   -0.3140 hc        1 MOL      0.149118
     83 N9          1.4030   -4.4750    1.4800 n         1 MOL     -0.332681
     84 C26         2.5350   -3.6380    1.3240 c3        1 MOL     -0.139497
     85 C27         3.1720   -3.7990   -0.1130 c         1 MOL      0.511756
     86 O15         3.3600   -4.9090   -0.6000 o         1 MOL     -0.558444
     87 C28         3.5470   -3.9420    2.4890 c3        1 MOL      0.144740
     88 C29         4.6470   -2.9340    2.2220 c3        1 MOL      0.055183
     89 C30         2.7320   -3.6710    3.8290 c3        1 MOL     -0.182554
     90 C31         5.7140   -3.1230    3.3070 c3        1 MOL     -0.226877
     91 H36         1.6450   -5.4530    1.5400 hn        1 MOL      0.248717
     92 H37         2.2320   -2.5910    1.3850 h1        1 MOL      0.089293
     93 H38         3.9020   -4.9680    2.4730 hc        1 MOL      0.001971
     94 H39         4.2090   -1.9420    2.2780 hc        1 MOL      0.037134
     95 H40         5.1340   -3.1150    1.2620 hc        1 MOL      0.037134
     96 H41         1.9750   -4.4330    4.0460 hc        1 MOL      0.048788
     97 H42         3.2950   -3.6720    4.7600 hc        1 MOL      0.048788
     98 H43         2.3150   -2.6720    3.7440 hc        1 MOL      0.048788
     99 H44         6.3640   -2.2570    3.1790 hc        1 MOL      0.037478
    100 H45         5.3170   -3.0770    4.3200 hc        1 MOL      0.037478
    101 H46         6.3630   -3.9610    3.0490 hc        1 MOL      0.037478
    102 N10         3.5120   -2.6900   -0.7890 n         1 MOL     -0.511867
    103 C32         4.2560   -2.7700   -2.0430 c3        1 MOL      0.366702
    104 C33         5.4680   -1.8050   -2.1250 c         1 MOL      0.363269
    105 O16         6.3080   -1.9700   -3.0010 o         1 MOL     -0.556509
    106 C34         3.3690   -2.6490   -3.2770 c3        1 MOL     -0.078486
    107 C35         2.4130   -1.4080   -3.1320 c         1 MOL      0.846910
    108 O17         2.9440   -0.3310   -3.5410 o         1 MOL     -0.745700
    109 O18         1.1830   -1.5150   -2.8080 o         1 MOL     -0.745700
    110 H47         3.3600   -1.8110   -0.3150 hn        1 MOL      0.216839
    111 H48         4.7370   -3.7430   -2.0650 h1        1 MOL      0.016479
    112 H49         2.7130   -3.5160   -3.3220 hc        1 MOL     -0.028083
    113 H50         4.0040   -2.6740   -4.1580 hc        1 MOL     -0.028083
    114 N11         5.6360   -0.7620   -1.3070 n         1 MOL     -0.411646
    115 C36         6.7940    0.1980   -1.2200 c3        1 MOL      0.357545
    116 C37         6.5190    1.5150   -0.4860 c         1 MOL      0.189489
    117 O19         6.9380    1.6090    0.7070 o         1 MOL     -0.433509
    118 C38         8.0390   -0.4890   -0.6530 c3        1 MOL     -0.366900
    119 C39         9.3840    0.2830   -0.7420 ca        1 MOL      0.189279
    120 C40        10.3210    0.4750    0.3200 ca        1 MOL     -0.218484
    121 C41         9.6320    0.9100   -1.9730 ca        1 MOL     -0.218484
    122 C42        11.5450    1.1720    0.0950 ca        1 MOL     -0.052941
    123 C43        10.8220    1.5960   -2.1760 ca        1 MOL     -0.052941
    124 C44        11.8160    1.6650   -1.1930 ca        1 MOL     -0.209630
    125 H51         4.9860   -0.7080   -0.5320 hn        1 MOL      0.266759
    126 H52         7.0490    0.5140   -2.2420 h1        1 MOL      0.019085
    127 H53         8.1420   -1.4460   -1.1640 hc        1 MOL      0.121440
    128 H54         7.9010   -0.6980    0.4090 hc        1 MOL      0.121440
    129 H55        10.0830    0.0370    1.2790 ha        1 MOL      0.132275
    130 H56         8.9490    0.9500   -2.8190 ha        1 MOL      0.132275
    131 H57        12.3350    1.2540    0.8260 ha        1 MOL      0.087221
    132 H58        11.0510    2.0160   -3.1410 ha        1 MOL      0.087221
    133 H59        12.6930    2.2580   -1.3740 ha        1 MOL      0.116615
    134 N12         5.6920    2.4360   -1.0420 n         1 MOL     -0.001305
    135 C45         5.1780    3.6890   -0.4690 c3        1 MOL     -0.153655
    136 C46         4.4770    3.7550    0.8830 c         1 MOL      0.336800
    137 O20         4.4810    4.9160    1.4210 o         1 MOL     -0.509468
    138 C47         4.2430    4.3250   -1.5510 c3        1 MOL      0.018473
    139 C48         4.7550    3.7200   -2.9040 c3        1 MOL     -0.411333
    140 C49         5.2560    2.3300   -2.4340 c3        1 MOL      0.225445
    141 H60         6.0490    4.3480   -0.4040 h1        1 MOL      0.101686
    142 H61         3.2280    3.9650   -1.3670 hc        1 MOL      0.072389
    143 H62         4.1550    5.4050   -1.5570 hc        1 MOL      0.072389
    144 H63         3.9090    3.5270   -3.5640 hc        1 MOL      0.125107
    145 H64         5.5830    4.2340   -3.3940 hc        1 MOL      0.125107
    146 H65         4.5600    1.4910   -2.5170 h1        1 MOL      0.021445
    147 H66         6.1260    2.1640   -3.0650 h1        1 MOL      0.021445
    148 N13         4.0480    2.6740    1.4400 n         1 MOL     -0.183883
    149 C50         3.7690    2.6250    2.8890 c3        1 MOL     -0.328779
    150 C51         5.0280    2.9720    3.7680 c         1 MOL      0.521632
    151 O21         4.9900    3.5860    4.8380 o         1 MOL     -0.535400
    152 C52         3.2150    1.2300    3.2790 c3        1 MOL      0.339154
    153 C53         2.1020    0.5570    2.4570 c3        1 MOL     -0.567493
    154 C54         2.4930   -0.0340    1.0160 c         1 MOL      0.949996
    155 O22         1.4680   -0.2970    0.3060 o         1 MOL     -0.815596
    156 O23         3.6570   -0.1110    0.5590 o         1 MOL     -0.815596
    157 H67         4.2130    1.7980    0.9540 hn        1 MOL      0.327732
    158 H68         2.9980    3.3760    3.0610 h1        1 MOL      0.158615
    159 H69         2.8420    1.3780    4.2980 hc        1 MOL     -0.047398
    160 H70         4.0290    0.5240    3.4460 hc        1 MOL     -0.047398
    161 H71         1.3070    1.2910    2.4840 hc        1 MOL      0.142691
    162 H72         1.6890   -0.2780    3.0250 hc        1 MOL      0.142691
    163 N14         6.1880    2.3720    3.3380 n         1 MOL     -0.145488
    164 C55         7.4460    2.6710    4.0010 c3        1 MOL     -0.340563
    165 H73         7.5220    3.7470    4.1640 h1        1 MOL      0.118138
    166 H74         7.4820    2.1560    4.9610 h1        1 MOL      0.118138
    167 H75         8.2750    2.3390    3.3770 h1        1 MOL      0.118138
    168 H76         6.2030    1.8150    2.5000 hn        1 MOL      0.178252
    169 Ca1        -0.5360   -1.1030   -1.0380 Ca        1 MOL      1.804932
    170 O24        -3.1800   -2.5470   -0.7600 oh        1 MOL     -0.895670
    171 H77        -3.4180   -3.2700   -1.3300 ho        1 MOL      0.418244
    172 H78        -3.7120   -1.8120   -1.0690 ho        1 MOL      0.418244
    173 O25        -0.7260   -3.6260   -1.8810 oh        1 MOL     -0.895670
    174 H79        -0.0500   -3.9460   -2.4740 ho        1 MOL      0.418244
    175 H80        -1.2730   -4.3900   -1.7010 ho        1 MOL      0.418244
    176 O26        -0.4510    1.3740   -1.8430 oh        1 MOL     -0.895670
    177 H81         0.3590    1.8610   -1.9830 ho        1 MOL      0.418244
    178 H82        -1.1300    2.0430   -1.7700 ho        1 MOL      0.418244
    179 O27        -2.5060    0.2700    0.0340 oh        1 MOL     -0.895670
    180 H83        -2.8730    0.8060    0.7430 ho        1 MOL      0.418244
    181 H84        -3.1940    0.2570   -0.6370 ho        1 MOL      0.418244
@<TRIPOS>BOND
     1    1    2 1   
     2    1    4 1   
     3    1    5 1   
     4    1    6 1   
     5    2    3 2   
     6    2    7 1   
     7    7    8 1   
     8    7   15 1   
     9    8    9 1   
    10    8   11 1   
    11    8   16 1   
    12    9   10 2   
    13    9   19 1   
    14   11   12 1   
    15   11   17 1   
    16   11   18 1   
    17   12   13 1   
    18   12   14 1   
    19   19   20 1   
    20   19   24 1   
    21   20   21 1   
    22   20   23 1   
    23   20   25 1   
    24   21   22 2   
    25   21   29 1   
    26   23   26 1   
    27   23   27 1   
    28   23   28 1   
    29   29   30 1   
    30   29   37 1   
    31   30   31 1   
    32   30   33 1   
    33   30   38 1   
    34   31   32 2   
    35   31   41 1   
    36   33   34 1   
    37   33   39 1   
    38   33   40 1   
    39   34   35 1   
    40   34   36 1   
    41   41   42 1   
    42   41   45 1   
    43   42   43 1   
    44   42   46 1   
    45   42   47 1   
    46   43   44 2   
    47   43   48 1   
    48   48   49 1   
    49   48   56 1   
    50   49   50 1   
    51   49   52 1   
    52   49   57 1   
    53   50   51 2   
    54   50   62 1   
    55   52   53 1   
    56   52   58 1   
    57   52   59 1   
    58   53   54 1   
    59   53   55 2   
    60   54   60 1   
    61   54   61 1   
    62   62   63 1   
    63   62   66 1   
    64   63   64 1   
    65   63   67 1   
    66   63   68 1   
    67   64   65 2   
    68   64   69 1   
    69   69   70 1   
    70   69   76 1   
    71   70   71 1   
    72   70   73 1   
    73   70   77 1   
    74   71   72 2   
    75   71   83 1   
    76   73   74 1   
    77   73   75 1   
    78   73   78 1   
    79   74   80 1   
    80   74   81 1   
    81   74   82 1   
    82   75   79 1   
    83   83   84 1   
    84   83   91 1   
    85   84   85 1   
    86   84   87 1   
    87   84   92 1   
    88   85   86 2   
    89   85  102 1   
    90   87   88 1   
    91   87   89 1   
    92   87   93 1   
    93   88   90 1   
    94   88   94 1   
    95   88   95 1   
    96   89   96 1   
    97   89   97 1   
    98   89   98 1   
    99   90   99 1   
   100   90  100 1   
   101   90  101 1   
   102  102  103 1   
   103  102  110 1   
   104  103  104 1   
   105  103  106 1   
   106  103  111 1   
   107  104  105 2   
   108  104  114 1   
   109  106  107 1   
   110  106  112 1   
   111  106  113 1   
   112  107  108 1   
   113  107  109 1   
   114  114  115 1   
   115  114  125 1   
   116  115  116 1   
   117  115  118 1   
   118  115  126 1   
   119  116  117 2   
   120  116  134 1   
   121  118  119 1   
   122  118  127 1   
   123  118  128 1   
   124  119  120 ar  
   125  119  121 ar  
   126  120  122 ar  
   127  120  129 1   
   128  121  123 ar  
   129  121  130 1   
   130  122  124 ar  
   131  122  131 1   
   132  123  124 ar  
   133  123  132 1   
   134  124  133 1   
   135  134  135 1   
   136  134  140 1   
   137  135  136 1   
   138  135  138 1   
   139  135  141 1   
   140  136  137 2   
   141  136  148 1   
   142  138  139 1   
   143  138  142 1   
   144  138  143 1   
   145  139  140 1   
   146  139  144 1   
   147  139  145 1   
   148  140  146 1   
   149  140  147 1   
   150  148  149 1   
   151  148  157 1   
   152  149  150 1   
   153  149  152 1   
   154  149  158 1   
   155  150  151 2   
   156  150  163 1   
   157  152  153 1   
   158  152  159 1   
   159  152  160 1   
   160  153  154 1   
   161  153  161 1   
   162  153  162 1   
   163  154  155 1   
   164  154  156 1   
   165  163  164 1   
   166  163  168 1   
   167  164  165 1   
   168  164  166 1   
   169  164  167 1   
   170  170  171 1   
   171  170  172 1   
   172  173  174 1   
   173  173  175 1   
   174  176  177 1   
   175  176  178 1   
   176  179  180 1   
   177  179  181 1   
@<TRIPOS>SUBSTRUCTURE
     1 MOL         1 TEMP              0 ****  ****    0 ROOT
