@<TRIPOS>MOLECULE
MOL
  179   176     1     0     0
SMALL
resp


@<TRIPOS>ATOM
      1 C1          2.4820   -5.0180    5.6590 c3        1 MOL     -0.311022
      2 C2          2.3740   -4.6780    4.1400 c         1 MOL      0.730776
      3 O1          1.6890   -5.3110    3.3180 o         1 MOL     -0.608375
      4 H1          3.2070   -5.8190    5.8020 hc        1 MOL      0.086265
      5 H2          2.8050   -4.1340    6.2080 hc        1 MOL      0.086265
      6 H3          1.5080   -5.3400    6.0290 hc        1 MOL      0.086265
      7 N1          3.0400   -3.5810    3.7930 n         1 MOL     -0.540788
      8 C3          3.1490   -3.0030    2.4510 c3        1 MOL     -0.125088
      9 C4          3.8040   -3.9730    1.4710 c         1 MOL      0.608490
     10 O2          4.9880   -4.2280    1.4810 o         1 MOL     -0.533554
     11 C5          3.9320   -1.6590    2.5330 c3        1 MOL      0.049396
     12 C6          3.7630   -0.8610    1.1800 c         1 MOL      0.627668
     13 O3          3.7550    0.3410    1.1840 o         1 MOL     -0.709904
     14 O4          3.6060   -1.4620    0.1230 o         1 MOL     -0.709904
     15 H4          3.4740   -3.0540    4.5460 hn        1 MOL      0.310841
     16 H5          2.1310   -2.6920    2.1910 h1        1 MOL     -0.034195
     17 H6          4.9790   -1.8680    2.7550 hc        1 MOL      0.019270
     18 H7          3.5710   -1.1210    3.4200 hc        1 MOL      0.019270
     19 N2          3.0200   -4.4490    0.4740 n         1 MOL     -0.231406
     20 C7          3.4530   -5.3920   -0.5460 c3        1 MOL     -0.134082
     21 C8          4.5960   -4.9090   -1.3970 c         1 MOL      0.413279
     22 O5          5.3700   -5.6250   -1.9580 o         1 MOL     -0.526765
     23 C9          2.3370   -6.0550   -1.4000 c3        1 MOL     -0.238446
     24 C10         1.4140   -5.0930   -2.1270 c3        1 MOL     -0.093593
     25 C11         2.0360   -4.4500   -3.3600 c3        1 MOL      0.167403
     26 C12         0.8390   -3.9250   -4.2100 c3        1 MOL     -0.051101
     27 N3          1.1470   -2.5430   -4.7420 n4        1 MOL     -0.268680
     28 H8          2.0900   -4.0510    0.5080 hn        1 MOL      0.236962
     29 H9          3.9280   -6.1370    0.0970 h1        1 MOL      0.147349
     30 H10         1.7910   -6.6740   -0.6950 hc        1 MOL      0.114260
     31 H11         2.8010   -6.6590   -2.1770 hc        1 MOL      0.114260
     32 H12         1.1860   -4.3800   -1.3390 hc        1 MOL      0.046054
     33 H13         0.5690   -5.7400   -2.3510 hc        1 MOL      0.046054
     34 H14         2.6160   -5.1690   -3.9410 hc        1 MOL      0.009674
     35 H15         2.5810   -3.5440   -3.1090 hc        1 MOL      0.009674
     36 H16        -0.0580   -3.8590   -3.5950 hx        1 MOL      0.084054
     37 H17         0.6310   -4.6440   -5.0000 hx        1 MOL      0.084054
     38 H18         1.9270   -2.1510   -4.2310 hn        1 MOL      0.280589
     39 H19         1.3270   -2.4060   -5.7250 hn        1 MOL      0.280589
     40 H20         0.5140   -1.8260   -4.4090 hn        1 MOL      0.280589
     41 N4          4.8410   -3.5880   -1.4360 n         1 MOL     -0.117861
     42 C13         6.0460   -3.0120   -2.1640 c3        1 MOL     -0.012666
     43 C14         7.0810   -2.3620   -1.1890 c         1 MOL      0.431145
     44 O6          8.3130   -2.4250   -1.3530 o         1 MOL     -0.543259
     45 C15         5.5930   -2.0650   -3.2750 c3        1 MOL     -0.164632
     46 C16         4.5460   -1.0460   -2.7780 c         1 MOL      0.803559
     47 O7          3.3680   -1.3350   -3.0170 o         1 MOL     -0.821469
     48 O8          4.7570    0.0280   -2.1900 o         1 MOL     -0.821469
     49 H21         4.1980   -2.9550   -0.9890 hn        1 MOL      0.280726
     50 H22         6.5410   -3.8900   -2.5810 h1        1 MOL      0.105850
     51 H23         5.0400   -2.7030   -3.9690 hc        1 MOL      0.048284
     52 H24         6.4710   -1.6310   -3.7550 hc        1 MOL      0.048284
     53 N5          6.6220   -1.6500   -0.1630 n         1 MOL      0.014302
     54 C17         7.4450   -0.8310    0.7100 c3        1 MOL     -0.183649
     55 C18         7.3690    0.7030    0.6440 c         1 MOL      0.570009
     56 O9          8.1700    1.3680    1.3590 o         1 MOL     -0.524732
     57 H25         5.6290   -1.5800   -0.0560 hn        1 MOL     -0.158082
     58 H26         8.4370   -1.2820    0.6360 h1        1 MOL      0.121427
     59 H27         7.1340   -1.0720    1.7210 h1        1 MOL      0.121427
     60 N6          6.4900    1.3010   -0.2390 n         1 MOL     -0.392977
     61 C19         6.5210    2.7350   -0.5560 c3        1 MOL      0.116869
     62 C20         5.1470    3.3440   -0.7790 c         1 MOL      0.771172
     63 O10         4.1660    2.7360   -1.1060 o         1 MOL     -0.680018
     64 C21         7.4270    3.0260   -1.7600 c3        1 MOL     -0.175095
     65 C22         8.7930    2.2370   -1.7250 c         1 MOL      0.577845
     66 N7          8.7830    1.1640   -2.4360 n         1 MOL     -0.803776
     67 O11         9.7390    2.4850   -0.9780 o         1 MOL     -0.492246
     68 H28         5.9950    0.6530   -0.8360 hn        1 MOL      0.280512
     69 H29         6.9700    3.2160    0.3130 h1        1 MOL      0.029448
     70 H30         7.6770    4.0800   -1.6110 hc        1 MOL      0.027197
     71 H31         6.9300    2.9820   -2.7270 hc        1 MOL      0.027197
     72 H32         7.9560    0.9960   -2.9740 hn        1 MOL      0.393704
     73 H33         9.5670    0.5230   -2.4300 hn        1 MOL      0.393704
     74 N8          5.1260    4.6670   -0.5160 n         1 MOL     -0.597539
     75 C23         3.8990    5.4930   -0.7440 c3        1 MOL     -0.115626
     76 C24         2.9480    5.1910    0.4260 c         1 MOL      0.718457
     77 O12         3.3330    5.1730    1.5750 o         1 MOL     -0.524167
     78 H34         5.9420    5.1590   -0.1950 hn        1 MOL      0.389500
     79 H35         3.4110    5.1410   -1.6580 h1        1 MOL      0.103465
     80 H36         4.0940    6.5570   -0.7730 h1        1 MOL      0.103465
     81 N9          1.6470    4.9280    0.1350 n         1 MOL     -0.782804
     82 C25         0.6570    4.4740    1.0770 c3        1 MOL      0.470518
     83 C26         0.7450    2.9210    1.2960 c         1 MOL      0.552306
     84 O13         1.4490    2.2330    0.5960 o         1 MOL     -0.496164
     85 C27        -0.7320    4.8220    0.4660 c3        1 MOL     -0.112972
     86 C28        -0.8860    6.3330    0.1380 ca        1 MOL      0.096792
     87 C29        -0.9490    6.7920   -1.1690 ca        1 MOL     -0.198197
     88 C30        -0.9740    7.2380    1.2080 ca        1 MOL     -0.198197
     89 C31        -0.8690    8.1860   -1.4450 ca        1 MOL     -0.189044
     90 C32        -1.0430    8.6410    0.9570 ca        1 MOL     -0.189044
     91 C33        -0.9120    9.1450   -0.3870 ca        1 MOL      0.244842
     92 O14        -0.8640   10.4970   -0.6230 oh        1 MOL     -0.416412
     93 H37         1.2440    4.9620   -0.7910 hn        1 MOL      0.262910
     94 H38         0.7300    4.9400    2.0600 h1        1 MOL      0.014856
     95 H39        -1.5660    4.6050    1.1440 hc        1 MOL      0.022601
     96 H40        -0.9900    4.2740   -0.4350 hc        1 MOL      0.022601
     97 H41        -0.8330    6.0710   -1.9530 ha        1 MOL      0.130351
     98 H42        -0.9530    6.8920    2.2300 ha        1 MOL      0.130351
     99 H43        -0.6390    8.4330   -2.4690 ha        1 MOL      0.148863
    100 H44        -1.0880    9.3390    1.7780 ha        1 MOL      0.148863
    101 H45        -0.9610   10.6580   -1.5690 ho        1 MOL      0.343329
    102 N10        -0.0970    2.4490    2.2250 n         1 MOL     -0.780610
    103 C34        -0.2270    1.0890    2.6840 c3        1 MOL      0.362431
    104 C35        -0.4190    0.0310    1.6140 c         1 MOL      0.181287
    105 O15         0.5250   -0.4540    0.9520 o         1 MOL     -0.344786
    106 C36         0.9180    0.7740    3.6820 c3        1 MOL      0.255077
    107 C37         0.9960   -0.6210    4.2560 c3        1 MOL     -0.058802
    108 C38         1.0960    1.7850    4.7700 c3        1 MOL     -0.283244
    109 C39        -0.2180   -1.2340    4.9390 c3        1 MOL     -0.323999
    110 H46        -0.6250    3.1850    2.6850 hn        1 MOL      0.313757
    111 H47        -1.0930    1.1270    3.3400 h1        1 MOL      0.030973
    112 H48         1.8060    0.8090    3.0540 hc        1 MOL     -0.021342
    113 H49         1.8380   -0.7060    4.9490 hc        1 MOL      0.071453
    114 H50         1.1140   -1.2910    3.4130 hc        1 MOL      0.071453
    115 H51         0.2520    1.7340    5.4560 hc        1 MOL      0.068636
    116 H52         2.0120    1.6540    5.3400 hc        1 MOL      0.068636
    117 H53         1.2290    2.7560    4.2940 hc        1 MOL      0.068636
    118 H54        -1.0600   -1.0850    4.2670 hc        1 MOL      0.068588
    119 H55         0.0610   -2.2710    5.1360 hc        1 MOL      0.068588
    120 H56        -0.3940   -0.7070    5.8790 hc        1 MOL      0.068588
    121 N11        -1.6730   -0.4670    1.4840 n         1 MOL     -0.287417
    122 C40        -1.9020   -1.8080    0.9350 c3        1 MOL     -0.130053
    123 C41        -3.3080   -2.0050    0.4030 c         1 MOL      0.447705
    124 O16        -3.7530   -3.0910    0.0450 o         1 MOL     -0.500093
    125 C42        -1.7050   -2.8950    2.0820 c3        1 MOL      0.141872
    126 O17        -2.6670   -2.6430    3.0740 oh        1 MOL     -0.574404
    127 H57        -2.3830   -0.1230    2.1210 hn        1 MOL      0.297484
    128 H58        -1.1010   -2.1260    0.2640 h1        1 MOL      0.100718
    129 H59        -0.7250   -2.7360    2.5340 h1        1 MOL      0.071471
    130 H60        -1.8220   -3.8930    1.6570 h1        1 MOL      0.071471
    131 H61        -2.7910   -3.4210    3.6240 ho        1 MOL      0.419730
    132 N12        -4.0820   -0.9220    0.3740 n         1 MOL     -0.380393
    133 C43        -5.5190   -0.8400   -0.0830 c3        1 MOL      0.231751
    134 C44        -5.6430   -0.5430   -1.6240 c         1 MOL      0.515505
    135 O18        -4.7420   -0.1390   -2.3570 o         1 MOL     -0.580720
    136 C45        -6.3040    0.1220    0.8210 c3        1 MOL     -0.129692
    137 H62        -3.6440   -0.0490    0.6000 hn        1 MOL      0.183950
    138 H63        -6.0000   -1.7990    0.1040 h1        1 MOL      0.064686
    139 H64        -5.9020    0.0090    1.8290 hc        1 MOL      0.037267
    140 H65        -6.1240    1.1370    0.4660 hc        1 MOL      0.037267
    141 H66        -7.3740   -0.0360    0.7140 hc        1 MOL      0.037267
    142 N13        -6.8610   -0.6800   -2.1650 n         1 MOL     -0.552775
    143 C46        -8.1380   -1.3440   -1.6610 c3        1 MOL      0.296339
    144 C47        -9.3630   -0.4050   -2.0170 c         1 MOL      0.209959
    145 O19        -9.4270    0.3730   -2.9620 o         1 MOL     -0.493289
    146 C48        -8.1870   -2.7080   -2.3060 c3        1 MOL     -0.331704
    147 H67        -6.9020   -0.4490   -3.1480 hn        1 MOL      0.327413
    148 H68        -8.0870   -1.4070   -0.5700 h1        1 MOL      0.005380
    149 H69        -9.0640   -3.2690   -1.9910 hc        1 MOL      0.102000
    150 H70        -8.2470   -2.5610   -3.3870 hc        1 MOL      0.102000
    151 H71        -7.3080   -3.3290   -2.1710 hc        1 MOL      0.102000
    152 N14       -10.4720   -0.4870   -1.3180 n         1 MOL      0.052740
    153 C49       -10.6310   -1.1980   -0.0130 c3        1 MOL     -0.355803
    154 C50       -10.3160   -0.3580    1.2470 c         1 MOL      0.631232
    155 O20        -9.9830   -0.9050    2.2940 o         1 MOL     -0.543720
    156 C51       -12.0890   -1.7800    0.1650 c3        1 MOL     -0.099246
    157 C52       -13.1620   -0.7210    0.1000 c3        1 MOL     -0.072878
    158 C53       -13.7070   -0.5470   -1.3380 c         1 MOL      0.638288
    159 O21       -14.8170   -1.0920   -1.6100 o         1 MOL     -0.642943
    160 O22       -13.0640    0.0600   -2.1830 o         1 MOL     -0.642943
    161 H72       -11.2340    0.1120   -1.5840 hn        1 MOL      0.167741
    162 H73        -9.9470   -2.0340    0.0420 h1        1 MOL      0.116670
    163 H74       -12.1970   -2.2400    1.1450 hc        1 MOL      0.079135
    164 H75       -12.2360   -2.4790   -0.6550 hc        1 MOL      0.079135
    165 H76       -12.9930    0.2080    0.6420 hc        1 MOL      0.004646
    166 H77       -13.9690   -1.1560    0.6950 hc        1 MOL      0.004646
    167 N15       -10.3010    1.0380    1.1410 n         1 MOL     -0.323014
    168 C54        -9.6020    1.8520    2.0990 c3        1 MOL     -0.180940
    169 H78        -8.6690    2.2050    1.6620 h1        1 MOL      0.087227
    170 H79       -10.2210    2.7070    2.3710 h1        1 MOL      0.087227
    171 H80        -9.3850    1.2620    2.9890 h1        1 MOL      0.087227
    172 H81       -10.5590    1.4260    0.2400 hn        1 MOL      0.249175
    173 Ca1         2.5150    0.6580   -1.2010 Ca        1 MOL      1.817611
    174 O23         0.5480   -1.3400   -1.6540 oh        1 MOL     -0.947125
    175 H82         0.2090   -1.5390   -0.7870 ho        1 MOL      0.436985
    176 H83        -0.2000   -0.9780   -2.1320 ho        1 MOL      0.436985
    177 O24        -0.0030    1.4660   -1.7050 oh        1 MOL     -0.947125
    178 H84        -0.0580    2.3890   -1.9610 ho        1 MOL      0.436985
    179 H85        -0.9060    1.2120   -1.5220 ho        1 MOL      0.436985
@<TRIPOS>BOND
     1    1    2 1   
     2    1    4 1   
     3    1    5 1   
     4    1    6 1   
     5    2    3 2   
     6    2    7 1   
     7    7    8 1   
     8    7   15 1   
     9    8    9 1   
    10    8   11 1   
    11    8   16 1   
    12    9   10 2   
    13    9   19 1   
    14   11   12 1   
    15   11   17 1   
    16   11   18 1   
    17   12   13 1   
    18   12   14 1   
    19   19   20 1   
    20   19   28 1   
    21   20   21 1   
    22   20   23 1   
    23   20   29 1   
    24   21   22 2   
    25   21   41 1   
    26   23   24 1   
    27   23   30 1   
    28   23   31 1   
    29   24   25 1   
    30   24   32 1   
    31   24   33 1   
    32   25   26 1   
    33   25   34 1   
    34   25   35 1   
    35   26   27 1   
    36   26   36 1   
    37   26   37 1   
    38   27   38 1   
    39   27   39 1   
    40   27   40 1   
    41   41   42 1   
    42   41   49 1   
    43   42   43 1   
    44   42   45 1   
    45   42   50 1   
    46   43   44 2   
    47   43   53 1   
    48   45   46 1   
    49   45   51 1   
    50   45   52 1   
    51   46   47 1   
    52   46   48 1   
    53   53   54 1   
    54   53   57 1   
    55   54   55 1   
    56   54   58 1   
    57   54   59 1   
    58   55   56 2   
    59   55   60 1   
    60   60   61 1   
    61   60   68 1   
    62   61   62 1   
    63   61   64 1   
    64   61   69 1   
    65   62   63 2   
    66   62   74 1   
    67   64   65 1   
    68   64   70 1   
    69   64   71 1   
    70   65   66 1   
    71   65   67 2   
    72   66   72 1   
    73   66   73 1   
    74   74   75 1   
    75   74   78 1   
    76   75   76 1   
    77   75   79 1   
    78   75   80 1   
    79   76   77 2   
    80   76   81 1   
    81   81   82 1   
    82   81   93 1   
    83   82   83 1   
    84   82   85 1   
    85   82   94 1   
    86   83   84 2   
    87   83  102 1   
    88   85   86 1   
    89   85   95 1   
    90   85   96 1   
    91   86   87 ar  
    92   86   88 ar  
    93   87   89 ar  
    94   87   97 1   
    95   88   90 ar  
    96   88   98 1   
    97   89   91 ar  
    98   89   99 1   
    99   90   91 ar  
   100   90  100 1   
   101   91   92 1   
   102   92  101 1   
   103  102  103 1   
   104  102  110 1   
   105  103  104 1   
   106  103  106 1   
   107  103  111 1   
   108  104  105 2   
   109  104  121 1   
   110  106  107 1   
   111  106  108 1   
   112  106  112 1   
   113  107  109 1   
   114  107  113 1   
   115  107  114 1   
   116  108  115 1   
   117  108  116 1   
   118  108  117 1   
   119  109  118 1   
   120  109  119 1   
   121  109  120 1   
   122  121  122 1   
   123  121  127 1   
   124  122  123 1   
   125  122  125 1   
   126  122  128 1   
   127  123  124 2   
   128  123  132 1   
   129  125  126 1   
   130  125  129 1   
   131  125  130 1   
   132  126  131 1   
   133  132  133 1   
   134  132  137 1   
   135  133  134 1   
   136  133  136 1   
   137  133  138 1   
   138  134  135 2   
   139  134  142 1   
   140  136  139 1   
   141  136  140 1   
   142  136  141 1   
   143  142  143 1   
   144  142  147 1   
   145  143  144 1   
   146  143  146 1   
   147  143  148 1   
   148  144  145 2   
   149  144  152 1   
   150  146  149 1   
   151  146  150 1   
   152  146  151 1   
   153  152  153 1   
   154  152  161 1   
   155  153  154 1   
   156  153  156 1   
   157  153  162 1   
   158  154  155 2   
   159  154  167 1   
   160  156  157 1   
   161  156  163 1   
   162  156  164 1   
   163  157  158 1   
   164  157  165 1   
   165  157  166 1   
   166  158  159 1   
   167  158  160 1   
   168  167  168 1   
   169  167  172 1   
   170  168  169 1   
   171  168  170 1   
   172  168  171 1   
   173  174  175 1   
   174  174  176 1   
   175  177  178 1   
   176  177  179 1   
@<TRIPOS>SUBSTRUCTURE
     1 MOL         1 TEMP              0 ****  ****    0 ROOT
