@<TRIPOS>MOLECULE
MOL
  192   187     1     0     0
SMALL
resp


@<TRIPOS>ATOM
      1 C1          9.6780    0.8920    0.8190 c3        1 MOL     -0.448629
      2 C2          8.3840    0.3240    0.2540 c         1 MOL      0.729878
      3 O1          7.3820    0.3040    0.9690 o         1 MOL     -0.649299
      4 H1          9.5640    1.0560    1.8910 hc        1 MOL      0.113362
      5 H2         10.4910    0.1870    0.6440 hc        1 MOL      0.113362
      6 H3          9.9040    1.8390    0.3280 hc        1 MOL      0.113362
      7 N1          8.4470   -0.2550   -0.9250 n         1 MOL     -0.472083
      8 C3          7.2270   -0.5260   -1.7480 c3        1 MOL     -0.017704
      9 C4          6.6060   -1.9190   -1.4300 c         1 MOL      0.358230
     10 O2          6.2220   -2.7440   -2.2750 o         1 MOL     -0.398397
     11 C5          7.3400   -0.1670   -3.1960 c3        1 MOL     -0.249910
     12 C6          8.4890   -0.8160   -3.9820 c         1 MOL      0.759307
     13 O3          9.3970   -1.4900   -3.4130 o         1 MOL     -0.642375
     14 O4          8.4940   -0.7080   -5.1650 o         1 MOL     -0.642375
     15 H4          9.3630   -0.3130   -1.3560 hn        1 MOL      0.249826
     16 H5          6.5000    0.2010   -1.3860 h1        1 MOL      0.142333
     17 H6          7.4850    0.9050   -3.1740 hc        1 MOL      0.086262
     18 H7          6.3810   -0.4230   -3.6460 hc        1 MOL      0.086262
     19 N2          6.5080   -2.1670   -0.0850 n         1 MOL     -0.148892
     20 C7          6.0330   -3.4260    0.4420 c3        1 MOL     -0.082312
     21 C8          4.5750   -3.6920    0.0790 c         1 MOL      0.420662
     22 O5          4.2080   -4.7380   -0.3670 o         1 MOL     -0.507507
     23 C9          6.3510   -3.5760    1.8990 c3        1 MOL      0.188680
     24 C10         7.8170   -3.4790    2.3390 c3        1 MOL     -0.336561
     25 C11         7.8450   -3.7780    3.8460 c3        1 MOL      0.019275
     26 C12         9.3350   -3.7320    4.2810 c3        1 MOL      0.025640
     27 N3          9.4590   -3.9200    5.7550 n4        1 MOL     -0.266051
     28 H8          6.9960   -1.4940    0.5000 hn        1 MOL      0.136032
     29 H9          6.5280   -4.2190   -0.1110 h1        1 MOL      0.081191
     30 H10         5.9770   -4.4970    2.3500 hc        1 MOL     -0.004786
     31 H11         5.7930   -2.8470    2.4930 hc        1 MOL     -0.004786
     32 H12         8.2570   -2.4980    2.1420 hc        1 MOL      0.112387
     33 H13         8.2870   -4.2910    1.7830 hc        1 MOL      0.112387
     34 H14         7.3860   -4.7430    4.1050 hc        1 MOL      0.038607
     35 H15         7.2650   -3.1210    4.4950 hc        1 MOL      0.038607
     36 H16         9.8220   -2.8340    3.8860 hx        1 MOL      0.085746
     37 H17         9.8630   -4.4910    3.6920 hx        1 MOL      0.085746
     38 H18         8.6960   -3.4990    6.2590 hn        1 MOL      0.252858
     39 H19         9.4300   -4.8920    5.9910 hn        1 MOL      0.252858
     40 H20        10.2730   -3.5100    6.1920 hn        1 MOL      0.252858
     41 N4          3.6470   -2.7310    0.2950 n         1 MOL     -0.332237
     42 C13         3.6950   -1.4230    0.9300 c3        1 MOL     -0.074136
     43 C14         3.7200   -0.3500   -0.2210 c         1 MOL      0.305049
     44 O6          3.7740   -0.6190   -1.4100 o         1 MOL     -0.394307
     45 C15         2.5810   -1.2460    1.9720 c3        1 MOL     -0.239773
     46 C16         1.1690   -1.6190    1.4040 c         1 MOL      0.628558
     47 O7          0.7410   -1.1190    0.3180 o         1 MOL     -0.632090
     48 O8          0.4200   -2.3130    2.1270 o         1 MOL     -0.632090
     49 H21         2.7950   -3.0060   -0.1700 hn        1 MOL      0.327776
     50 H22         4.6440   -1.1980    1.4180 h1        1 MOL      0.126105
     51 H23         2.5400   -0.2220    2.3630 hc        1 MOL      0.066241
     52 H24         2.6810   -2.0520    2.7030 hc        1 MOL      0.066241
     53 N5          3.9790    0.7960    0.2760 n         1 MOL     -0.280587
     54 C17         4.1180    2.0180   -0.5010 c3        1 MOL     -0.013084
     55 C18         2.7560    2.4900   -1.1160 c         1 MOL      0.633064
     56 O9          1.6590    2.0230   -0.8400 o         1 MOL     -0.603744
     57 H25         4.1920    0.9390    1.2440 hn        1 MOL      0.295197
     58 H26         4.8130    1.8170   -1.3210 h1        1 MOL      0.033786
     59 H27         4.5350    2.8190    0.1060 h1        1 MOL      0.033786
     60 N6          2.8100    3.6380   -1.8760 n         1 MOL     -0.484175
     61 C19         1.6960    4.4470   -2.4020 c3        1 MOL      0.222013
     62 C20         2.1000    5.9240   -2.4660 c         1 MOL      0.465414
     63 O10         3.2900    6.3230   -2.4950 o         1 MOL     -0.525533
     64 C21         1.3580    3.9450   -3.8090 c3        1 MOL     -0.333550
     65 C22         0.8630    2.5380   -3.6910 c         1 MOL      0.714425
     66 O11        -0.1800    2.3990   -3.0700 o         1 MOL     -0.664949
     67 O12         1.4530    1.6350   -4.2640 o         1 MOL     -0.664949
     68 H28         3.7290    4.0140   -2.0740 hn        1 MOL      0.272845
     69 H29         0.8230    4.3920   -1.7500 h1        1 MOL      0.033817
     70 H30         2.3180    3.9960   -4.3210 hc        1 MOL      0.096443
     71 H31         0.6960    4.6510   -4.3120 hc        1 MOL      0.096443
     72 N7          1.1370    6.8830   -2.5450 n         1 MOL     -0.457100
     73 C23        -0.3330    6.7840   -2.4430 c3        1 MOL     -0.040443
     74 C24        -0.8230    6.3630   -1.0490 c         1 MOL      0.600256
     75 O13        -0.1110    6.4230   -0.0520 o         1 MOL     -0.482189
     76 H32         1.5530    7.8080   -2.6080 hn        1 MOL      0.313607
     77 H33        -0.7190    6.0630   -3.1500 h1        1 MOL      0.074964
     78 H34        -0.7690    7.7510   -2.6940 h1        1 MOL      0.074964
     79 N8         -2.0440    5.8580   -0.9790 n         1 MOL     -0.650248
     80 C25        -2.6730    5.3160    0.2630 c3        1 MOL     -0.024627
     81 C26        -1.8490    4.1680    0.7730 c         1 MOL      0.838056
     82 O14        -1.4460    3.2600   -0.0730 o         1 MOL     -0.735883
     83 C27        -4.0930    4.9570   -0.0800 c3        1 MOL      0.230418
     84 C28        -4.8150    4.5900    1.2460 c3        1 MOL     -0.192272
     85 O15        -4.2490    3.8090   -0.8580 oh        1 MOL     -0.567601
     86 H35        -2.5300    5.6470   -1.8410 hn        1 MOL      0.327313
     87 H36        -2.6720    6.1020    1.0190 h1        1 MOL      0.098315
     88 H37        -4.6110    5.7490   -0.6120 h1        1 MOL      0.052192
     89 H38        -3.6270    3.8860   -1.5820 ho        1 MOL      0.379891
     90 H39        -4.9020    5.4750    1.8620 hc        1 MOL      0.043404
     91 H40        -5.8480    4.2650    1.1140 hc        1 MOL      0.043404
     92 H41        -4.2180    3.7760    1.6680 hc        1 MOL      0.043404
     93 N9         -1.5080    4.2170    2.0970 n         1 MOL     -0.514728
     94 C29        -0.7040    3.2390    2.9220 c3        1 MOL     -0.002764
     95 C30        -1.0290    1.7900    2.5440 c         1 MOL      0.648464
     96 O16        -0.4090    1.2070    1.6570 o         1 MOL     -0.594536
     97 C31         0.8130    3.4460    2.7540 c3        1 MOL     -0.043269
     98 C32         1.2230    4.9140    2.8700 c3        1 MOL      0.025036
     99 C33         1.6140    2.6370    3.7550 c3        1 MOL     -0.487647
    100 C34         2.4940    5.1340    2.0590 c3        1 MOL     -0.211757
    101 H42        -1.8260    5.0370    2.5860 hn        1 MOL      0.278233
    102 H43        -0.9540    3.3660    3.9770 h1        1 MOL      0.055891
    103 H44         1.1460    3.1310    1.7680 hc        1 MOL      0.137301
    104 H45         1.3670    5.3270    3.8750 hc        1 MOL      0.013436
    105 H46         0.5170    5.6290    2.4550 hc        1 MOL      0.013436
    106 H47         1.3100    1.5950    3.6350 hc        1 MOL      0.142254
    107 H48         2.6820    2.8270    3.6770 hc        1 MOL      0.142254
    108 H49         1.2550    2.8740    4.7600 hc        1 MOL      0.142254
    109 H50         2.6740    6.2080    1.9800 hc        1 MOL      0.060586
    110 H51         3.3210    4.7850    2.6820 hc        1 MOL      0.060586
    111 H52         2.3070    4.8450    1.0340 hc        1 MOL      0.060586
    112 N10        -1.9430    1.1580    3.2730 n         1 MOL     -0.401409
    113 C35        -2.1190   -0.3280    3.5500 c3        1 MOL     -0.002801
    114 C36        -3.5470   -0.7010    3.5330 c         1 MOL      0.506192
    115 O17        -4.1320   -1.0980    4.5580 o         1 MOL     -0.523731
    116 C37        -1.2480   -0.7980    4.7190 c3        1 MOL      0.543882
    117 C38        -1.4460   -0.0600    5.9480 c3        1 MOL     -0.323067
    118 O18         0.1480   -0.7980    4.3940 oh        1 MOL     -0.640843
    119 H53        -2.5270    1.7780    3.8070 hn        1 MOL      0.240562
    120 H54        -1.6330   -0.8050    2.7050 h1        1 MOL     -0.004156
    121 H55        -1.4830   -1.8240    4.9830 h1        1 MOL     -0.026688
    122 H56         0.2440   -1.4580    3.6990 ho        1 MOL      0.342553
    123 H57        -0.7670   -0.3860    6.7320 hc        1 MOL      0.060993
    124 H58        -1.1060    0.9670    5.7570 hc        1 MOL      0.060993
    125 H59        -2.4640   -0.2520    6.2750 hc        1 MOL      0.060993
    126 N11        -4.1680   -0.6000    2.3030 n         1 MOL     -0.433546
    127 C39        -5.4970   -1.0050    2.1360 c3        1 MOL      0.055979
    128 C40        -5.7560   -1.4550    0.7430 c         1 MOL      0.590976
    129 O19        -5.2870   -0.8210   -0.2280 o         1 MOL     -0.487507
    130 C41        -6.4840   -0.0260    2.6680 c3        1 MOL      0.348708
    131 C42        -6.0910    1.4320    2.2750 c3        1 MOL     -0.182735
    132 O20        -7.8400   -0.2660    2.3710 oh        1 MOL     -0.625519
    133 H60        -3.6910   -0.2140    1.5030 hn        1 MOL      0.342202
    134 H61        -5.6800   -1.8650    2.7870 h1        1 MOL     -0.005736
    135 H62        -6.5170   -0.0980    3.7490 h1        1 MOL     -0.006741
    136 H63        -8.0770   -1.0510    2.8820 ho        1 MOL      0.374297
    137 H64        -5.7310    1.4810    1.2430 hc        1 MOL      0.053680
    138 H65        -6.9640    2.0770    2.3840 hc        1 MOL      0.053680
    139 H66        -5.3330    1.8050    2.9680 hc        1 MOL      0.053680
    140 N12        -6.5990   -2.4620    0.5590 n         1 MOL     -0.516231
    141 C43        -7.0380   -2.9740   -0.7550 c3        1 MOL      0.080724
    142 C44        -5.8550   -3.2760   -1.7040 c         1 MOL      0.519016
    143 O21        -5.9150   -2.9230   -2.8940 o         1 MOL     -0.497549
    144 C45        -8.1300   -2.0430   -1.3790 c3        1 MOL     -0.384936
    145 C46        -9.4070   -1.9960   -0.5140 c3        1 MOL      0.090932
    146 C47       -10.2030   -0.6870   -0.7040 c3        1 MOL     -0.014077
    147 C48       -11.5380   -0.7180   -0.0370 c3        1 MOL     -0.144865
    148 N13       -12.5140   -1.4680   -0.8840 n4        1 MOL     -0.118973
    149 H67        -7.0500   -2.9350    1.3320 hn        1 MOL      0.295399
    150 H68        -7.4230   -3.9640   -0.5260 h1        1 MOL      0.066133
    151 H69        -8.4220   -2.4180   -2.3540 hc        1 MOL      0.138552
    152 H70        -7.7220   -1.0430   -1.5190 hc        1 MOL      0.138552
    153 H71        -9.2150   -2.0000    0.5580 hc        1 MOL      0.006929
    154 H72       -10.1150   -2.8080   -0.6730 hc        1 MOL      0.006929
    155 H73       -10.2710   -0.4450   -1.7630 hc        1 MOL      0.060047
    156 H74        -9.5800    0.1440   -0.3550 hc        1 MOL      0.060047
    157 H75       -11.8890    0.3100    0.1140 hx        1 MOL      0.112963
    158 H76       -11.4070   -1.1880    0.9360 hx        1 MOL      0.112963
    159 H77       -12.4590   -1.0270   -1.7940 hn        1 MOL      0.188072
    160 H78       -12.4400   -2.4710   -0.9430 hn        1 MOL      0.188072
    161 H79       -13.4380   -1.1730   -0.5870 hn        1 MOL      0.188072
    162 N14        -4.7220   -3.7890   -1.1430 n         1 MOL     -0.466775
    163 C49        -3.3640   -3.5090   -1.7620 c3        1 MOL      0.077440
    164 C50        -2.4410   -2.8580   -0.8040 c         1 MOL      0.376797
    165 O22        -2.2110   -1.6760   -0.9360 o         1 MOL     -0.562992
    166 C51        -2.7510   -4.8460   -2.4450 c3        1 MOL     -0.099535
    167 C52        -3.3260   -5.2880   -3.7530 c3        1 MOL     -0.360614
    168 C53        -3.0190   -6.7660   -3.9340 c         1 MOL      0.680508
    169 O23        -1.9690   -7.0680   -4.5820 o         1 MOL     -0.627896
    170 O24        -3.7710   -7.6510   -3.3560 o         1 MOL     -0.627896
    171 H80        -4.7790   -4.2900   -0.2770 hn        1 MOL      0.294365
    172 H81        -3.4230   -2.7650   -2.5530 h1        1 MOL      0.124410
    173 H82        -2.8500   -5.5930   -1.6580 hc        1 MOL      0.107409
    174 H83        -1.6860   -4.7040   -2.6010 hc        1 MOL      0.107409
    175 H84        -2.7870   -4.7000   -4.4850 hc        1 MOL      0.106868
    176 H85        -4.4090   -5.2290   -3.8720 hc        1 MOL      0.106868
    177 N15        -1.9330   -3.4710    0.2350 n         1 MOL     -0.364955
    178 C54        -2.3680   -4.6750    0.9350 c3        1 MOL      0.013666
    179 H86        -2.0900   -5.5530    0.3530 h1        1 MOL      0.036719
    180 H87        -1.8880   -4.7200    1.9120 h1        1 MOL      0.036719
    181 H88        -3.4500   -4.6510    1.0610 h1        1 MOL      0.036719
    182 H89        -1.1940   -2.8870    0.6170 hn        1 MOL      0.331083
    183 Ca1        -0.6510    0.8270   -1.0170 Ca        1 MOL      1.832224
    184 O25        -2.6530    0.6270   -2.9860 oh        1 MOL     -0.959693
    185 H90        -2.3160    0.5480   -3.8780 ho        1 MOL      0.449565
    186 H91        -3.5930    0.7850   -3.1050 ho        1 MOL      0.449565
    187 O26         0.8530   -0.4330   -2.9460 oh        1 MOL     -0.959693
    188 H92         0.9950    0.3680   -3.4380 ho        1 MOL      0.449565
    189 H93         1.3610   -1.1030   -3.4150 ho        1 MOL      0.449565
    190 O27        -3.2610    0.8220   -0.0340 oh        1 MOL     -0.959693
    191 H94        -3.7290    0.1320   -0.5070 ho        1 MOL      0.449565
    192 H95        -3.8020    1.5990   -0.1500 ho        1 MOL      0.449565
@<TRIPOS>BOND
     1    1    2 1   
     2    1    4 1   
     3    1    5 1   
     4    1    6 1   
     5    2    3 2   
     6    2    7 1   
     7    7    8 1   
     8    7   15 1   
     9    8    9 1   
    10    8   11 1   
    11    8   16 1   
    12    9   10 2   
    13    9   19 1   
    14   11   12 1   
    15   11   17 1   
    16   11   18 1   
    17   12   13 1   
    18   12   14 1   
    19   19   20 1   
    20   19   28 1   
    21   20   21 1   
    22   20   23 1   
    23   20   29 1   
    24   21   22 2   
    25   21   41 1   
    26   23   24 1   
    27   23   30 1   
    28   23   31 1   
    29   24   25 1   
    30   24   32 1   
    31   24   33 1   
    32   25   26 1   
    33   25   34 1   
    34   25   35 1   
    35   26   27 1   
    36   26   36 1   
    37   26   37 1   
    38   27   38 1   
    39   27   39 1   
    40   27   40 1   
    41   41   42 1   
    42   41   49 1   
    43   42   43 1   
    44   42   45 1   
    45   42   50 1   
    46   43   44 2   
    47   43   53 1   
    48   45   46 1   
    49   45   51 1   
    50   45   52 1   
    51   46   47 1   
    52   46   48 1   
    53   53   54 1   
    54   53   57 1   
    55   54   55 1   
    56   54   58 1   
    57   54   59 1   
    58   55   56 2   
    59   55   60 1   
    60   60   61 1   
    61   60   68 1   
    62   61   62 1   
    63   61   64 1   
    64   61   69 1   
    65   62   63 2   
    66   62   72 1   
    67   64   65 1   
    68   64   70 1   
    69   64   71 1   
    70   65   66 1   
    71   65   67 1   
    72   72   73 1   
    73   72   76 1   
    74   73   74 1   
    75   73   77 1   
    76   73   78 1   
    77   74   75 2   
    78   74   79 1   
    79   79   80 1   
    80   79   86 1   
    81   80   81 1   
    82   80   83 1   
    83   80   87 1   
    84   81   82 2   
    85   81   93 1   
    86   83   84 1   
    87   83   85 1   
    88   83   88 1   
    89   84   90 1   
    90   84   91 1   
    91   84   92 1   
    92   85   89 1   
    93   93   94 1   
    94   93  101 1   
    95   94   95 1   
    96   94   97 1   
    97   94  102 1   
    98   95   96 2   
    99   95  112 1   
   100   97   98 1   
   101   97   99 1   
   102   97  103 1   
   103   98  100 1   
   104   98  104 1   
   105   98  105 1   
   106   99  106 1   
   107   99  107 1   
   108   99  108 1   
   109  100  109 1   
   110  100  110 1   
   111  100  111 1   
   112  112  113 1   
   113  112  119 1   
   114  113  114 1   
   115  113  116 1   
   116  113  120 1   
   117  114  115 2   
   118  114  126 1   
   119  116  117 1   
   120  116  118 1   
   121  116  121 1   
   122  117  123 1   
   123  117  124 1   
   124  117  125 1   
   125  118  122 1   
   126  126  127 1   
   127  126  133 1   
   128  127  128 1   
   129  127  130 1   
   130  127  134 1   
   131  128  129 2   
   132  128  140 1   
   133  130  131 1   
   134  130  132 1   
   135  130  135 1   
   136  131  137 1   
   137  131  138 1   
   138  131  139 1   
   139  132  136 1   
   140  140  141 1   
   141  140  149 1   
   142  141  142 1   
   143  141  144 1   
   144  141  150 1   
   145  142  143 2   
   146  142  162 1   
   147  144  145 1   
   148  144  151 1   
   149  144  152 1   
   150  145  146 1   
   151  145  153 1   
   152  145  154 1   
   153  146  147 1   
   154  146  155 1   
   155  146  156 1   
   156  147  148 1   
   157  147  157 1   
   158  147  158 1   
   159  148  159 1   
   160  148  160 1   
   161  148  161 1   
   162  162  163 1   
   163  162  171 1   
   164  163  164 1   
   165  163  166 1   
   166  163  172 1   
   167  164  165 2   
   168  164  177 1   
   169  166  167 1   
   170  166  173 1   
   171  166  174 1   
   172  167  168 1   
   173  167  175 1   
   174  167  176 1   
   175  168  169 1   
   176  168  170 1   
   177  177  178 1   
   178  177  182 1   
   179  178  179 1   
   180  178  180 1   
   181  178  181 1   
   182  184  185 1   
   183  184  186 1   
   184  187  188 1   
   185  187  189 1   
   186  190  191 1   
   187  190  192 1   
@<TRIPOS>SUBSTRUCTURE
     1 MOL         1 TEMP              0 ****  ****    0 ROOT
