@<TRIPOS>MOLECULE
MOL
  198   191     1     0     0
SMALL
resp


@<TRIPOS>ATOM
      1 C1         -4.8680    5.6580    1.9050 c3        1 MOL     -0.480400
      2 C2         -4.3150    4.5500    0.9220 c         1 MOL      0.800362
      3 O1         -5.0290    4.1200    0.1200 o         1 MOL     -0.627779
      4 H1         -4.6000    6.6450    1.5280 hc        1 MOL      0.126303
      5 H2         -5.9520    5.5770    1.9720 hc        1 MOL      0.126303
      6 H3         -4.4310    5.5180    2.8940 hc        1 MOL      0.126303
      7 N1         -3.1200    4.0180    0.9520 n         1 MOL     -0.575723
      8 C3         -1.9480    4.4560    1.8060 c3        1 MOL     -0.141967
      9 C4         -1.1200    5.5510    1.0400 c         1 MOL      0.494253
     10 O2         -0.6060    6.4490    1.7080 o         1 MOL     -0.518983
     11 C5         -1.0520    3.2670    2.3540 c3        1 MOL     -0.144802
     12 C6         -1.9310    2.1840    2.9070 c         1 MOL      0.767352
     13 O3         -1.9180    1.1250    2.2060 o         1 MOL     -0.791193
     14 O4         -2.1990    2.0250    4.1650 o         1 MOL     -0.791193
     15 H4         -3.0020    3.1490    0.4470 hn        1 MOL      0.316135
     16 H5         -2.4840    4.8650    2.6540 h1        1 MOL      0.101773
     17 H6         -0.3660    3.5130    3.1750 hc        1 MOL      0.104296
     18 H7         -0.4900    2.8750    1.5080 hc        1 MOL      0.104296
     19 N2         -1.1120    5.4920   -0.3540 n         1 MOL     -0.232688
     20 C7         -0.6290    6.6490   -1.1950 c3        1 MOL     -0.323084
     21 C8          0.8380    6.6670   -1.4600 c         1 MOL      0.421436
     22 O5          1.4030    7.6370   -2.0680 o         1 MOL     -0.558807
     23 C9         -1.3770    6.5800   -2.6080 c3        1 MOL      0.249635
     24 C10        -1.0960    5.2470   -3.3440 c3        1 MOL      0.137411
     25 C11        -2.8440    6.8860   -2.5120 c3        1 MOL     -0.128305
     26 C12        -1.3080    5.3670   -4.8710 c3        1 MOL     -0.159602
     27 H8         -1.3300    4.5820   -0.7220 hn        1 MOL      0.258099
     28 H9         -0.9110    7.5850   -0.6950 h1        1 MOL      0.183708
     29 H10        -1.0180    7.4640   -3.1330 hc        1 MOL     -0.024015
     30 H11        -1.5500    4.3950   -2.8520 hc        1 MOL     -0.007543
     31 H12        -0.0110    5.1080   -3.2550 hc        1 MOL     -0.007543
     32 H13        -2.9200    7.8030   -1.9330 hc        1 MOL      0.006881
     33 H14        -3.2970    7.1550   -3.4680 hc        1 MOL      0.006881
     34 H15        -3.2880    6.0480   -1.9800 hc        1 MOL      0.006881
     35 H16        -2.3820    5.5640   -4.9780 hc        1 MOL      0.023047
     36 H17        -0.7210    6.1180   -5.3930 hc        1 MOL      0.023047
     37 H18        -1.0700    4.4010   -5.3260 hc        1 MOL      0.023047
     38 N3          1.6130    5.6690   -1.0060 n         1 MOL     -0.047590
     39 C13         3.0930    5.7800   -0.9080 c3        1 MOL     -0.025924
     40 C14         3.6720    5.2300    0.4310 c         1 MOL      0.513943
     41 O6          2.8350    4.8670    1.2760 o         1 MOL     -0.542370
     42 C15         3.7750    5.1050   -2.1410 c3        1 MOL     -0.177989
     43 C16         5.2680    5.5280   -2.3760 c         1 MOL      0.715584
     44 O7          5.9310    4.7830   -3.1570 o         1 MOL     -0.705564
     45 O8          5.7260    6.6220   -1.9160 o         1 MOL     -0.705564
     46 H19         1.1530    4.8520   -0.6280 hn        1 MOL      0.084822
     47 H20         3.3610    6.8370   -0.9070 h1        1 MOL      0.069269
     48 H21         3.1900    5.4310   -3.0090 hc        1 MOL      0.016840
     49 H22         3.5620    4.0450   -1.9940 hc        1 MOL      0.016840
     50 N4          5.0320    5.1650    0.5550 n         1 MOL     -0.502841
     51 C17         5.8120    4.2950    1.6420 c3        1 MOL     -0.099082
     52 C18         6.2990    2.9710    0.9730 c         1 MOL      0.715386
     53 O9          6.1780    2.7020   -0.2160 o         1 MOL     -0.508468
     54 H23         5.5830    5.5220   -0.2150 hn        1 MOL      0.296179
     55 H24         5.0880    3.9940    2.3810 h1        1 MOL      0.088838
     56 H25         6.7190    4.7700    2.0240 h1        1 MOL      0.088838
     57 N5          6.7350    2.0230    1.8440 n         1 MOL     -0.653858
     58 C19         7.1360    0.6280    1.3530 c3        1 MOL      0.265082
     59 C20         7.9890    0.5010    0.0350 c         1 MOL      0.451949
     60 O10         8.8150    1.3790   -0.2200 o         1 MOL     -0.523749
     61 C21         7.7440   -0.1110    2.4760 c3        1 MOL     -0.327443
     62 C22         6.8610   -0.1570    3.7400 c         1 MOL      0.746471
     63 O11         5.8140   -0.8480    3.7150 o         1 MOL     -0.728238
     64 O12         7.2340    0.4630    4.7480 o         1 MOL     -0.728238
     65 H26         6.6470    2.2080    2.8350 hn        1 MOL      0.309010
     66 H27         6.2040    0.0770    1.1950 h1        1 MOL      0.010218
     67 H28         8.7280    0.2820    2.7430 hc        1 MOL      0.053482
     68 H29         7.9550   -1.1390    2.1850 hc        1 MOL      0.053482
     69 N6          7.7450   -0.4960   -0.8340 n         1 MOL     -0.490195
     70 C23         6.9100   -1.6860   -0.5190 c3        1 MOL      0.080195
     71 C24         7.0670   -2.7440   -1.6000 c         1 MOL      0.578310
     72 O13         7.6810   -2.5140   -2.6050 o         1 MOL     -0.549557
     73 H30         8.3350   -0.4430   -1.6570 hn        1 MOL      0.313861
     74 H31         5.8700   -1.3680   -0.4120 h1        1 MOL      0.072691
     75 H32         7.2130   -2.1230    0.4350 h1        1 MOL      0.072691
     76 N7          6.4960   -3.9480   -1.4630 n         1 MOL     -0.453781
     77 C25         5.6280   -4.5330   -0.4120 c3        1 MOL      0.043800
     78 C26         4.4160   -3.6860   -0.0330 c         1 MOL      0.481412
     79 O14         4.4460   -2.9850    0.9900 o         1 MOL     -0.491742
     80 C27         6.3550   -4.9940    0.8480 c3        1 MOL     -0.385747
     81 C28         7.1810   -6.2380    0.4970 c3        1 MOL     -0.346167
     82 C29         7.6320   -7.0130    1.7040 c         1 MOL      0.778035
     83 N8          6.8030   -7.7640    2.3260 n         1 MOL     -0.844797
     84 O15         8.7700   -6.9350    2.1110 o         1 MOL     -0.590760
     85 H33         6.4680   -4.4280   -2.3590 hn        1 MOL      0.270767
     86 H34         5.2570   -5.4360   -0.9200 h1        1 MOL      0.093368
     87 H35         5.6380   -5.2650    1.6240 hc        1 MOL      0.180553
     88 H36         7.0500   -4.2310    1.2140 hc        1 MOL      0.180553
     89 H37         8.0190   -5.8510   -0.0800 hc        1 MOL      0.109266
     90 H38         6.6600   -6.8870   -0.1990 hc        1 MOL      0.109266
     91 H39         5.8400   -7.5680    2.0950 hn        1 MOL      0.374814
     92 H40         7.0510   -8.1400    3.2310 hn        1 MOL      0.374814
     93 N9          3.3490   -3.7170   -0.8220 n         1 MOL     -0.408435
     94 C30         2.2350   -2.7450   -0.6950 c3        1 MOL      0.013037
     95 C31         1.8560   -2.0470   -2.0250 c         1 MOL      0.533392
     96 O16         2.1820   -2.4650   -3.1270 o         1 MOL     -0.534122
     97 C32         1.0530   -3.3910   -0.0100 c3        1 MOL     -0.038205
     98 C33         1.3000   -4.1660    1.3370 c3        1 MOL     -0.186682
     99 C34         0.5220   -4.4340   -1.0270 c3        1 MOL     -0.186682
    100 H41         3.2630   -4.4270   -1.5370 hn        1 MOL      0.229114
    101 H42         2.7060   -1.9570   -0.1200 h1        1 MOL      0.100705
    102 H43         0.3100   -2.6550    0.2970 hc        1 MOL      0.104439
    103 H44         2.0140   -4.9920    1.3570 hc        1 MOL      0.062417
    104 H45         1.6100   -3.6290    2.2270 hc        1 MOL      0.062417
    105 H46         0.3180   -4.5950    1.5650 hc        1 MOL      0.062417
    106 H47         0.3120   -4.1100   -2.0420 hc        1 MOL      0.062417
    107 H48         1.1780   -5.3080   -1.0300 hc        1 MOL      0.062417
    108 H49        -0.4040   -4.8530   -0.6460 hc        1 MOL      0.062417
    109 N10         1.1910   -0.8840   -1.9040 n         1 MOL     -0.433697
    110 C35         0.6380   -0.0490   -3.0050 c3        1 MOL      0.286605
    111 C36        -0.9160   -0.1280   -3.2750 c         1 MOL      0.399367
    112 O17        -1.5750    0.7580   -3.8070 o         1 MOL     -0.509319
    113 C37         1.2110    1.3760   -3.0130 c3        1 MOL     -0.363107
    114 C38         1.1750    2.0970   -1.6700 c         1 MOL      0.658779
    115 N11         2.1610    1.9280   -0.7910 n         1 MOL     -0.627059
    116 O18         0.1610    2.6390   -1.3290 o         1 MOL     -0.548229
    117 H50         0.8640   -0.6410   -0.9750 hn        1 MOL      0.237508
    118 H51         1.0700   -0.5340   -3.8810 h1        1 MOL      0.045315
    119 H52         0.7190    2.0440   -3.7160 hc        1 MOL      0.104206
    120 H53         2.2750    1.3670   -3.2470 hc        1 MOL      0.104206
    121 H54         2.8520    1.2590   -1.1050 hn        1 MOL      0.317978
    122 H55         2.1290    2.2630    0.1550 hn        1 MOL      0.317978
    123 N12        -1.4660   -1.2470   -2.8380 n         1 MOL     -0.235229
    124 C39        -2.9050   -1.7160   -3.0750 c3        1 MOL     -0.026255
    125 C40        -3.5480   -2.1570   -1.7510 c         1 MOL      0.601963
    126 O19        -2.9200   -2.5740   -0.8280 o         1 MOL     -0.477163
    127 C41        -3.0250   -2.7690   -4.1750 c3        1 MOL     -0.142937
    128 C42        -2.3070   -4.0310   -3.9530 ca        1 MOL      0.099923
    129 C43        -3.0060   -5.2230   -3.6060 ca        1 MOL     -0.183744
    130 C44        -0.9470   -4.0710   -4.3580 ca        1 MOL     -0.183744
    131 C45        -2.2760   -6.3850   -3.5160 ca        1 MOL     -0.141871
    132 C46        -0.2220   -5.2730   -4.2180 ca        1 MOL     -0.141871
    133 C47        -0.8850   -6.4530   -3.9050 ca        1 MOL      0.147214
    134 O20        -0.2420   -7.6450   -3.9970 oh        1 MOL     -0.452423
    135 H56        -0.9980   -1.6640   -2.0530 hn        1 MOL      0.102595
    136 H57        -3.5220   -0.8430   -3.3200 h1        1 MOL      0.083647
    137 H58        -2.8470   -2.4730   -5.2120 hc        1 MOL      0.070202
    138 H59        -4.0910   -2.9690   -4.2520 hc        1 MOL      0.070202
    139 H60        -4.0310   -5.1390   -3.2660 ha        1 MOL      0.123511
    140 H61        -0.3880   -3.2720   -4.8070 ha        1 MOL      0.123511
    141 H62        -2.7760   -7.2970   -3.2120 ha        1 MOL      0.139785
    142 H63         0.8080   -5.2720   -4.5440 ha        1 MOL      0.139785
    143 H64         0.6450   -7.5500   -4.3700 ho        1 MOL      0.346162
    144 N13        -4.9020   -2.1930   -1.7290 n         1 MOL     -0.601864
    145 C48        -5.7490   -2.5330   -0.6060 c3        1 MOL      0.227380
    146 C49        -6.8150   -1.5030   -0.3500 c         1 MOL      0.302152
    147 O21        -7.9420   -1.5880   -0.8500 o         1 MOL     -0.483407
    148 C50        -6.3120   -3.9200   -0.9790 c3        1 MOL     -0.314759
    149 C51        -7.0200   -4.5130    0.2320 c3        1 MOL     -0.162800
    150 C52        -7.5350   -5.9920   -0.0220 c         1 MOL      0.646126
    151 O22        -8.6300   -6.3720    0.4530 o         1 MOL     -0.716570
    152 O23        -6.8700   -6.7100   -0.8580 o         1 MOL     -0.716570
    153 H65        -5.3540   -1.9140   -2.5860 hn        1 MOL      0.297556
    154 H66        -5.1550   -2.5180    0.3120 h1        1 MOL      0.042241
    155 H67        -5.5390   -4.6180   -1.3030 hc        1 MOL      0.142991
    156 H68        -7.1640   -3.7890   -1.6410 hc        1 MOL      0.142991
    157 H69        -7.9040   -3.8960    0.4200 hc        1 MOL      0.037880
    158 H70        -6.4360   -4.4890    1.1490 hc        1 MOL      0.037880
    159 N14        -6.4770   -0.3890    0.3330 n         1 MOL     -0.051044
    160 C53        -7.1620    0.9070    0.3760 c3        1 MOL     -0.197930
    161 C54        -7.1870    1.6210   -0.9940 c         1 MOL      0.460480
    162 O24        -8.0670    2.3840   -1.2490 o         1 MOL     -0.551905
    163 C55        -6.4160    1.7460    1.4080 c3        1 MOL      0.088078
    164 C56        -6.7570    1.3950    2.8780 c3        1 MOL     -0.099658
    165 C57        -6.0490    0.1720    3.4410 c         1 MOL      0.650130
    166 O25        -4.8750    0.3170    3.8550 o         1 MOL     -0.732674
    167 O26        -6.6120   -0.8940    3.5750 o         1 MOL     -0.732674
    168 H71        -5.5070   -0.2870    0.6070 hn        1 MOL      0.155167
    169 H72        -8.1850    0.6730    0.6830 h1        1 MOL      0.135461
    170 H73        -6.9200    2.7100    1.2900 hc        1 MOL      0.029140
    171 H74        -5.3400    1.6570    1.2590 hc        1 MOL      0.029140
    172 H75        -7.8360    1.3210    3.0120 hc        1 MOL      0.019084
    173 H76        -6.4810    2.2710    3.4700 hc        1 MOL      0.019084
    174 N15        -6.3180    1.3060   -1.8940 n         1 MOL     -0.079330
    175 C58        -6.3480    1.7550   -3.2910 c3        1 MOL     -0.129028
    176 H77        -5.3730    2.1600   -3.5630 h1        1 MOL      0.066982
    177 H78        -6.5840    0.9110   -3.9390 h1        1 MOL      0.066982
    178 H79        -7.1080    2.5280   -3.4090 h1        1 MOL      0.066982
    179 H80        -5.6290    0.6160   -1.6210 hn        1 MOL      0.106928
    180 Ca1        -2.5370   -0.6040    4.0970 Ca        1 MOL      1.688185
    181 O27        -1.5640   -2.7820    5.2070 oh        1 MOL     -0.798471
    182 H81        -0.6260   -2.6300    5.1510 ho        1 MOL      0.397698
    183 H82        -1.7660   -2.7130    6.1410 ho        1 MOL      0.397698
    184 O28        -4.2030   -0.4700    6.2470 oh        1 MOL     -0.798471
    185 H83        -5.0140   -0.4150    5.7460 ho        1 MOL      0.397698
    186 H84        -4.4600   -0.2510    7.1390 ho        1 MOL      0.397698
    187 O29         0.3110   -0.5390    3.6180 oh        1 MOL     -0.798471
    188 H85         1.0460   -0.7630    4.1830 ho        1 MOL      0.397698
    189 H86         0.3850    0.4060    3.4890 ho        1 MOL      0.397698
    190 O30        -1.1320   -0.0270    6.2610 oh        1 MOL     -0.798471
    191 H87        -0.2450   -0.0710    6.6020 ho        1 MOL      0.397698
    192 H88        -1.6080    0.5120    6.8880 ho        1 MOL      0.397698
    193 O31        -2.2520   -1.8930    1.8350 oh        1 MOL     -0.798471
    194 H89        -2.4490   -2.6940    1.3470 ho        1 MOL      0.397698
    195 H90        -1.9790   -1.2660    1.1600 ho        1 MOL      0.397698
    196 O32        -4.2550   -2.7020    3.9210 oh        1 MOL     -0.798471
    197 H91        -4.2770   -3.5730    4.3210 ho        1 MOL      0.397698
    198 H92        -5.1790   -2.4790    3.7830 ho        1 MOL      0.397698
@<TRIPOS>BOND
     1    1    2 1   
     2    1    4 1   
     3    1    5 1   
     4    1    6 1   
     5    2    3 2   
     6    2    7 1   
     7    7    8 1   
     8    7   15 1   
     9    8    9 1   
    10    8   11 1   
    11    8   16 1   
    12    9   10 2   
    13    9   19 1   
    14   11   12 1   
    15   11   17 1   
    16   11   18 1   
    17   12   13 1   
    18   12   14 1   
    19   19   20 1   
    20   19   27 1   
    21   20   21 1   
    22   20   23 1   
    23   20   28 1   
    24   21   22 2   
    25   21   38 1   
    26   23   24 1   
    27   23   25 1   
    28   23   29 1   
    29   24   26 1   
    30   24   30 1   
    31   24   31 1   
    32   25   32 1   
    33   25   33 1   
    34   25   34 1   
    35   26   35 1   
    36   26   36 1   
    37   26   37 1   
    38   38   39 1   
    39   38   46 1   
    40   39   40 1   
    41   39   42 1   
    42   39   47 1   
    43   40   41 2   
    44   40   50 1   
    45   42   43 1   
    46   42   48 1   
    47   42   49 1   
    48   43   44 1   
    49   43   45 1   
    50   50   51 1   
    51   50   54 1   
    52   51   52 1   
    53   51   55 1   
    54   51   56 1   
    55   52   53 2   
    56   52   57 1   
    57   57   58 1   
    58   57   65 1   
    59   58   59 1   
    60   58   61 1   
    61   58   66 1   
    62   59   60 2   
    63   59   69 1   
    64   61   62 1   
    65   61   67 1   
    66   61   68 1   
    67   62   63 1   
    68   62   64 1   
    69   69   70 1   
    70   69   73 1   
    71   70   71 1   
    72   70   74 1   
    73   70   75 1   
    74   71   72 2   
    75   71   76 1   
    76   76   77 1   
    77   76   85 1   
    78   77   78 1   
    79   77   80 1   
    80   77   86 1   
    81   78   79 2   
    82   78   93 1   
    83   80   81 1   
    84   80   87 1   
    85   80   88 1   
    86   81   82 1   
    87   81   89 1   
    88   81   90 1   
    89   82   83 1   
    90   82   84 2   
    91   83   91 1   
    92   83   92 1   
    93   93   94 1   
    94   93  100 1   
    95   94   95 1   
    96   94   97 1   
    97   94  101 1   
    98   95   96 2   
    99   95  109 1   
   100   97   98 1   
   101   97   99 1   
   102   97  102 1   
   103   98  103 1   
   104   98  104 1   
   105   98  105 1   
   106   99  106 1   
   107   99  107 1   
   108   99  108 1   
   109  109  110 1   
   110  109  117 1   
   111  110  111 1   
   112  110  113 1   
   113  110  118 1   
   114  111  112 2   
   115  111  123 1   
   116  113  114 1   
   117  113  119 1   
   118  113  120 1   
   119  114  115 1   
   120  114  116 2   
   121  115  121 1   
   122  115  122 1   
   123  123  124 1   
   124  123  135 1   
   125  124  125 1   
   126  124  127 1   
   127  124  136 1   
   128  125  126 2   
   129  125  144 1   
   130  127  128 1   
   131  127  137 1   
   132  127  138 1   
   133  128  129 ar  
   134  128  130 ar  
   135  129  131 ar  
   136  129  139 1   
   137  130  132 ar  
   138  130  140 1   
   139  131  133 ar  
   140  131  141 1   
   141  132  133 ar  
   142  132  142 1   
   143  133  134 1   
   144  134  143 1   
   145  144  145 1   
   146  144  153 1   
   147  145  146 1   
   148  145  148 1   
   149  145  154 1   
   150  146  147 2   
   151  146  159 1   
   152  148  149 1   
   153  148  155 1   
   154  148  156 1   
   155  149  150 1   
   156  149  157 1   
   157  149  158 1   
   158  150  151 1   
   159  150  152 1   
   160  159  160 1   
   161  159  168 1   
   162  160  161 1   
   163  160  163 1   
   164  160  169 1   
   165  161  162 2   
   166  161  174 1   
   167  163  164 1   
   168  163  170 1   
   169  163  171 1   
   170  164  165 1   
   171  164  172 1   
   172  164  173 1   
   173  165  166 1   
   174  165  167 1   
   175  174  175 1   
   176  174  179 1   
   177  175  176 1   
   178  175  177 1   
   179  175  178 1   
   180  181  182 1   
   181  181  183 1   
   182  184  185 1   
   183  184  186 1   
   184  187  188 1   
   185  187  189 1   
   186  190  191 1   
   187  190  192 1   
   188  193  194 1   
   189  193  195 1   
   190  196  197 1   
   191  196  198 1   
@<TRIPOS>SUBSTRUCTURE
     1 MOL         1 TEMP              0 ****  ****    0 ROOT
