@<TRIPOS>MOLECULE
MOL
  182   178     1     0     0
SMALL
resp


@<TRIPOS>ATOM
      1 C1          1.0540   -4.3070    6.2150 c3        1 MOL     -0.375071
      2 C2          0.9890   -4.0270    4.6650 c         1 MOL      0.739725
      3 O1         -0.1010   -3.8680    4.1060 o         1 MOL     -0.615508
      4 H1          0.2180   -3.8110    6.7090 hc        1 MOL      0.107802
      5 H2          0.9950   -5.3800    6.3940 hc        1 MOL      0.107802
      6 H3          1.9910   -3.9220    6.6160 hc        1 MOL      0.107802
      7 N1          2.1380   -3.8550    4.0070 n         1 MOL     -0.550801
      8 C3          2.4720   -3.3680    2.6500 c3        1 MOL     -0.055516
      9 C4          3.0020   -4.5310    1.7680 c         1 MOL      0.644330
     10 O2          3.6450   -5.4520    2.2830 o         1 MOL     -0.563372
     11 C5          3.4650   -2.2440    2.8320 c3        1 MOL      0.206379
     12 C6          3.5620   -1.4040    1.6010 c         1 MOL      0.226265
     13 O3          4.1120   -0.2200    1.7300 o         1 MOL     -0.579526
     14 O4          3.2520   -1.7880    0.4150 o         1 MOL     -0.579526
     15 H4          2.9340   -3.8840    4.6280 hn        1 MOL      0.281011
     16 H5          1.5530   -2.9880    2.1920 h1        1 MOL      0.061566
     17 H6          4.4720   -2.5570    3.1050 hc        1 MOL      0.014033
     18 H7          3.1220   -1.6200    3.6530 hc        1 MOL      0.014033
     19 N2          2.6710   -4.5030    0.4780 n         1 MOL     -0.409157
     20 C7          2.8940   -5.5940   -0.5160 c3        1 MOL     -0.038127
     21 C8          3.9400   -5.1550   -1.5600 c         1 MOL      0.428923
     22 O5          4.1990   -5.8260   -2.5680 o         1 MOL     -0.545000
     23 C9          1.5870   -6.0300   -1.1840 c3        1 MOL     -0.081998
     24 C10         0.9220   -4.8410   -1.7850 c3        1 MOL      0.033628
     25 C11        -0.4890   -5.2190   -2.2260 c3        1 MOL      0.067511
     26 C12        -0.5800   -6.4300   -3.1040 c3        1 MOL      0.040400
     27 N3         -1.8760   -6.5950   -3.6690 n4        1 MOL     -0.186264
     28 H8          2.2680   -3.6490    0.1160 hn        1 MOL      0.320069
     29 H9          3.2910   -6.4430    0.0390 h1        1 MOL      0.128899
     30 H10         0.9940   -6.4800   -0.3870 hc        1 MOL      0.045782
     31 H11         1.7790   -6.7590   -1.9810 hc        1 MOL      0.045782
     32 H12         1.3450   -4.4240   -2.7010 hc        1 MOL      0.016113
     33 H13         0.7460   -4.0490   -1.0470 hc        1 MOL      0.016113
     34 H14        -0.8140   -4.3300   -2.7770 hc        1 MOL     -0.003439
     35 H15        -1.0790   -5.3420   -1.3200 hc        1 MOL     -0.003439
     36 H16        -0.2290   -7.2660   -2.4830 hx        1 MOL      0.061576
     37 H17         0.0910   -6.3970   -3.9720 hx        1 MOL      0.061576
     38 H18        -2.6010   -6.9520   -3.0630 hn        1 MOL      0.233476
     39 H19        -2.3210   -5.8430   -4.1800 hn        1 MOL      0.233476
     40 H20        -1.8640   -7.3660   -4.3190 hn        1 MOL      0.233476
     41 N4          4.6550   -4.0540   -1.3500 n         1 MOL     -0.209746
     42 C13         5.7920   -3.5950   -2.1090 c3        1 MOL      0.046053
     43 C14         6.7690   -2.8900   -1.2060 c         1 MOL      0.324679
     44 O6          7.9600   -2.9220   -1.5090 o         1 MOL     -0.489052
     45 C15         5.2870   -2.7110   -3.2120 c3        1 MOL     -0.126455
     46 C16         4.3070   -1.5740   -2.7200 c         1 MOL      0.758621
     47 O7          3.1520   -1.6380   -3.1640 o         1 MOL     -0.764411
     48 O8          4.7280   -0.7070   -1.9250 o         1 MOL     -0.764411
     49 H21         4.2690   -3.5810   -0.5350 hn        1 MOL      0.042124
     50 H22         6.2620   -4.4150   -2.6440 h1        1 MOL      0.113755
     51 H23         4.7650   -3.3390   -3.9360 hc        1 MOL      0.050407
     52 H24         6.1140   -2.3060   -3.8110 hc        1 MOL      0.050407
     53 N5          6.3150   -2.1980   -0.1300 n         1 MOL      0.003708
     54 C17         7.1490   -1.6210    0.9080 c3        1 MOL     -0.365222
     55 C18         7.3920   -0.1670    0.8900 c         1 MOL      0.654426
     56 O9          7.8320    0.3940    1.8880 o         1 MOL     -0.576522
     57 H25         5.3290   -2.1920    0.1140 hn        1 MOL      0.169494
     58 H26         8.1910   -1.9200    0.8150 h1        1 MOL      0.137000
     59 H27         6.7540   -1.8650    1.8990 h1        1 MOL      0.137000
     60 N6          6.9180    0.5470   -0.1670 n         1 MOL     -0.258450
     61 C19         7.1380    1.9400   -0.3510 c3        1 MOL      0.054736
     62 C20         5.7940    2.7760   -0.4040 c         1 MOL      0.529859
     63 O10         4.7630    2.2040   -0.6750 o         1 MOL     -0.485778
     64 C21         7.8970    2.0760   -1.6990 c3        1 MOL     -0.281650
     65 C22         9.3650    1.4840   -1.6530 c         1 MOL      0.607612
     66 N7         10.2180    1.9310   -0.7380 n         1 MOL     -0.732634
     67 O11         9.6880    0.7350   -2.5810 o         1 MOL     -0.518544
     68 H28         6.3800    0.0170   -0.8410 hn        1 MOL      0.218456
     69 H29         7.7140    2.3340    0.4760 h1        1 MOL      0.010310
     70 H30         8.1110    3.1240   -1.8880 hc        1 MOL      0.076956
     71 H31         7.3880    1.6630   -2.5620 hc        1 MOL      0.076956
     72 H32        10.0300    2.7510   -0.1870 hn        1 MOL      0.349586
     73 H33        11.2050    1.7640   -0.9290 hn        1 MOL      0.349586
     74 N8          5.9650    4.1230   -0.2700 n         1 MOL     -0.334412
     75 C23         4.9590    5.0840   -0.4050 c3        1 MOL     -0.369558
     76 C24         3.8980    4.8920    0.6640 c         1 MOL      0.702474
     77 O12         4.0870    4.6650    1.8290 o         1 MOL     -0.529586
     78 H34         6.9250    4.3980   -0.0900 hn        1 MOL      0.311076
     79 H35         4.4390    5.0340   -1.3640 h1        1 MOL      0.144872
     80 H36         5.4040    6.0510   -0.1450 h1        1 MOL      0.144872
     81 N9          2.6950    5.0290    0.2020 n         1 MOL     -0.543962
     82 C25         1.4870    4.7200    0.9180 c3        1 MOL     -0.078495
     83 C26         1.4890    3.2330    1.4220 c         1 MOL      0.707807
     84 O13         2.2910    2.4480    0.8950 o         1 MOL     -0.520814
     85 C27         0.2870    5.1100    0.0230 c3        1 MOL     -0.014293
     86 C28         0.0930    6.5550   -0.3550 ca        1 MOL      0.204310
     87 C29         0.3740    7.6250    0.5410 ca        1 MOL     -0.294635
     88 C30        -0.4530    6.8280   -1.6200 ca        1 MOL     -0.294635
     89 C31         0.1360    8.9670    0.1250 ca        1 MOL     -0.158091
     90 C32        -0.9330    8.1880   -1.9110 ca        1 MOL     -0.158091
     91 C33        -0.6880    9.2270   -0.9500 ca        1 MOL      0.231385
     92 O14        -0.9350   10.5340   -1.3380 oh        1 MOL     -0.447767
     93 H37         2.6070    5.1780   -0.7950 hn        1 MOL      0.280286
     94 H38         1.4470    5.4110    1.7540 h1        1 MOL      0.094579
     95 H39        -0.6110    4.8450    0.5730 hc        1 MOL      0.008982
     96 H40         0.2760    4.4600   -0.8450 hc        1 MOL      0.008982
     97 H41         0.8790    7.4740    1.4770 ha        1 MOL      0.165872
     98 H42        -0.6360    6.0380   -2.3240 ha        1 MOL      0.165872
     99 H43         0.3950    9.7970    0.7660 ha        1 MOL      0.148787
    100 H44        -1.3680    8.4270   -2.8740 ha        1 MOL      0.148787
    101 H45        -0.5960   11.0800   -0.6330 ho        1 MOL      0.347998
    102 N10         0.5020    2.9860    2.2790 n         1 MOL     -0.676843
    103 C34         0.0330    1.6410    2.7490 c3        1 MOL      0.169996
    104 C35        -0.1050    0.6010    1.6010 c         1 MOL      0.439412
    105 O15         0.9100    0.1530    1.0300 o         1 MOL     -0.523893
    106 C36         0.8590    1.0820    3.9300 c3        1 MOL      0.136507
    107 C37         0.5910   -0.3600    4.4390 c3        1 MOL     -0.032122
    108 C38         0.7550    2.0710    5.2240 c3        1 MOL     -0.218662
    109 C39        -0.5360   -0.5610    5.4180 c3        1 MOL     -0.230943
    110 H46         0.0080    3.7940    2.6180 hn        1 MOL      0.349622
    111 H47        -0.9580    1.8440    3.1600 h1        1 MOL      0.048972
    112 H48         1.9000    1.1470    3.6060 hc        1 MOL      0.045243
    113 H49         1.4700   -0.6460    5.0250 hc        1 MOL      0.050071
    114 H50         0.4400   -1.0260    3.5940 hc        1 MOL      0.050071
    115 H51        -0.2590    2.1180    5.6140 hc        1 MOL      0.057848
    116 H52         1.4990    1.6670    5.9050 hc        1 MOL      0.057848
    117 H53         1.0700    3.1000    5.0410 hc        1 MOL      0.057848
    118 H54        -1.4680   -0.2440    4.9300 hc        1 MOL      0.055600
    119 H55        -0.5190   -1.6310    5.6270 hc        1 MOL      0.055600
    120 H56        -0.3430    0.0010    6.3310 hc        1 MOL      0.055600
    121 N11        -1.3520    0.2840    1.2030 n         1 MOL     -0.457273
    122 C40        -1.6430   -0.7270    0.1470 c3        1 MOL     -0.081560
    123 C41        -3.0620   -0.8490   -0.4670 c         1 MOL      0.753633
    124 O16        -3.1290   -1.3310   -1.5940 o         1 MOL     -0.593036
    125 C42        -1.2370   -2.1540    0.6890 c3        1 MOL      0.386103
    126 O17        -1.9870   -2.3880    1.8980 oh        1 MOL     -0.675002
    127 H57        -2.1190    0.6160    1.7560 hn        1 MOL      0.271318
    128 H58        -1.0440   -0.6220   -0.7690 h1        1 MOL      0.069370
    129 H59        -0.1860   -2.2440    0.9600 h1        1 MOL     -0.048658
    130 H60        -1.5900   -2.8970   -0.0250 h1        1 MOL     -0.048658
    131 H61        -1.4850   -2.8280    2.5860 ho        1 MOL      0.434559
    132 N12        -4.0630   -0.2580    0.1310 n         1 MOL     -0.620366
    133 C43        -5.4690   -0.2970   -0.1820 c3        1 MOL      0.109288
    134 C44        -5.7550    0.5580   -1.4490 c         1 MOL      0.684350
    135 O18        -4.9510    1.4280   -1.7650 o         1 MOL     -0.568790
    136 C45        -6.1960    0.3410    1.0290 c3        1 MOL     -0.307960
    137 H62        -3.8230    0.1280    1.0310 hn        1 MOL      0.333529
    138 H63        -5.7860   -1.3380   -0.3090 h1        1 MOL      0.112097
    139 H64        -5.8460    1.3590    1.1980 hc        1 MOL      0.105818
    140 H65        -7.2270    0.4800    0.7260 hc        1 MOL      0.105818
    141 H66        -6.2480   -0.1900    1.9760 hc        1 MOL      0.105818
    142 N13        -6.8090    0.3960   -2.2850 n         1 MOL     -0.647066
    143 C46        -8.0080   -0.4980   -2.0130 c3        1 MOL      0.195648
    144 C47        -9.3460    0.0410   -2.6330 c         1 MOL      0.419675
    145 O19        -9.3830    0.4840   -3.8210 o         1 MOL     -0.517767
    146 C48        -7.7190   -1.8780   -2.5740 c3        1 MOL     -0.196264
    147 H67        -6.8880    0.9910   -3.1020 hn        1 MOL      0.361149
    148 H68        -8.1350   -0.6300   -0.9380 h1        1 MOL     -0.013527
    149 H69        -8.5890   -2.5350   -2.5380 hc        1 MOL      0.065748
    150 H70        -7.4400   -1.7580   -3.6190 hc        1 MOL      0.065748
    151 H71        -6.8720   -2.3820   -2.1070 hc        1 MOL      0.065748
    152 N14       -10.4950    0.2040   -1.9060 n         1 MOL     -0.430393
    153 C49       -10.8750   -0.3320   -0.6260 c3        1 MOL      0.086275
    154 C50       -10.2110    0.4400    0.5100 c         1 MOL      0.290534
    155 O20        -9.7600   -0.1840    1.5020 o         1 MOL     -0.522948
    156 C51       -12.3960   -0.4100   -0.4250 c3        1 MOL     -0.031878
    157 C52       -12.9280   -1.2960    0.7640 c3        1 MOL     -0.215766
    158 C53       -14.4070   -1.4110    0.7200 c         1 MOL      0.755852
    159 O21       -14.9560   -0.6630    1.5830 o         1 MOL     -0.684823
    160 O22       -14.9210   -2.2760    0.0210 o         1 MOL     -0.684823
    161 H72       -11.2740    0.4920   -2.4860 hn        1 MOL      0.298438
    162 H73       -10.5810   -1.3790   -0.6260 h1        1 MOL      0.084014
    163 H74       -12.8970   -0.7560   -1.3330 hc        1 MOL      0.022638
    164 H75       -12.8070    0.6030   -0.3690 hc        1 MOL      0.022638
    165 H76       -12.5250   -0.8860    1.6880 hc        1 MOL      0.057844
    166 H77       -12.4240   -2.2660    0.7460 hc        1 MOL      0.057844
    167 N15       -10.1690    1.7240    0.3840 n         1 MOL     -0.123691
    168 C54        -9.5790    2.7890    1.2580 c3        1 MOL     -0.105323
    169 H78        -8.6610    3.1630    0.8040 h1        1 MOL      0.075945
    170 H79       -10.2900    3.6080    1.3650 h1        1 MOL      0.075945
    171 H80        -9.3550    2.3710    2.2390 h1        1 MOL      0.075945
    172 H81       -10.7030    2.0130   -0.4250 hn        1 MOL      0.191414
    173 Ca1         2.6690    0.4700   -0.9700 Ca        1 MOL      1.764504
    174 O23         0.6820    1.6780   -1.9850 oh        1 MOL     -0.870469
    175 H82        -0.2450    1.6160   -1.7460 ho        1 MOL      0.430283
    176 H83         0.6970    2.2440   -2.7550 ho        1 MOL      0.430283
    177 O24         0.6900   -1.2960   -2.1800 oh        1 MOL     -0.870469
    178 H84         0.1240   -1.0110   -2.8880 ho        1 MOL      0.430283
    179 H85         1.3950   -1.7800   -2.6050 ho        1 MOL      0.430283
    180 O25         3.2880    2.0520   -3.2160 oh        1 MOL     -0.870469
    181 H86         2.9330    1.9810   -4.1060 ho        1 MOL      0.430283
    182 H87         3.9270    2.7660   -3.2750 ho        1 MOL      0.430283
@<TRIPOS>BOND
     1    1    2 1   
     2    1    4 1   
     3    1    5 1   
     4    1    6 1   
     5    2    3 2   
     6    2    7 1   
     7    7    8 1   
     8    7   15 1   
     9    8    9 1   
    10    8   11 1   
    11    8   16 1   
    12    9   10 2   
    13    9   19 1   
    14   11   12 1   
    15   11   17 1   
    16   11   18 1   
    17   12   13 1   
    18   12   14 1   
    19   19   20 1   
    20   19   28 1   
    21   20   21 1   
    22   20   23 1   
    23   20   29 1   
    24   21   22 2   
    25   21   41 1   
    26   23   24 1   
    27   23   30 1   
    28   23   31 1   
    29   24   25 1   
    30   24   32 1   
    31   24   33 1   
    32   25   26 1   
    33   25   34 1   
    34   25   35 1   
    35   26   27 1   
    36   26   36 1   
    37   26   37 1   
    38   27   38 1   
    39   27   39 1   
    40   27   40 1   
    41   41   42 1   
    42   41   49 1   
    43   42   43 1   
    44   42   45 1   
    45   42   50 1   
    46   43   44 2   
    47   43   53 1   
    48   45   46 1   
    49   45   51 1   
    50   45   52 1   
    51   46   47 1   
    52   46   48 1   
    53   53   54 1   
    54   53   57 1   
    55   54   55 1   
    56   54   58 1   
    57   54   59 1   
    58   55   56 2   
    59   55   60 1   
    60   60   61 1   
    61   60   68 1   
    62   61   62 1   
    63   61   64 1   
    64   61   69 1   
    65   62   63 2   
    66   62   74 1   
    67   64   65 1   
    68   64   70 1   
    69   64   71 1   
    70   65   66 1   
    71   65   67 2   
    72   66   72 1   
    73   66   73 1   
    74   74   75 1   
    75   74   78 1   
    76   75   76 1   
    77   75   79 1   
    78   75   80 1   
    79   76   77 2   
    80   76   81 1   
    81   81   82 1   
    82   81   93 1   
    83   82   83 1   
    84   82   85 1   
    85   82   94 1   
    86   83   84 2   
    87   83  102 1   
    88   85   86 1   
    89   85   95 1   
    90   85   96 1   
    91   86   87 ar  
    92   86   88 ar  
    93   87   89 ar  
    94   87   97 1   
    95   88   90 ar  
    96   88   98 1   
    97   89   91 ar  
    98   89   99 1   
    99   90   91 ar  
   100   90  100 1   
   101   91   92 1   
   102   92  101 1   
   103  102  103 1   
   104  102  110 1   
   105  103  104 1   
   106  103  106 1   
   107  103  111 1   
   108  104  105 2   
   109  104  121 1   
   110  106  107 1   
   111  106  108 1   
   112  106  112 1   
   113  107  109 1   
   114  107  113 1   
   115  107  114 1   
   116  108  115 1   
   117  108  116 1   
   118  108  117 1   
   119  109  118 1   
   120  109  119 1   
   121  109  120 1   
   122  121  122 1   
   123  121  127 1   
   124  122  123 1   
   125  122  125 1   
   126  122  128 1   
   127  123  124 2   
   128  123  132 1   
   129  125  126 1   
   130  125  129 1   
   131  125  130 1   
   132  126  131 1   
   133  132  133 1   
   134  132  137 1   
   135  133  134 1   
   136  133  136 1   
   137  133  138 1   
   138  134  135 2   
   139  134  142 1   
   140  136  139 1   
   141  136  140 1   
   142  136  141 1   
   143  142  143 1   
   144  142  147 1   
   145  143  144 1   
   146  143  146 1   
   147  143  148 1   
   148  144  145 2   
   149  144  152 1   
   150  146  149 1   
   151  146  150 1   
   152  146  151 1   
   153  152  153 1   
   154  152  161 1   
   155  153  154 1   
   156  153  156 1   
   157  153  162 1   
   158  154  155 2   
   159  154  167 1   
   160  156  157 1   
   161  156  163 1   
   162  156  164 1   
   163  157  158 1   
   164  157  165 1   
   165  157  166 1   
   166  158  159 1   
   167  158  160 1   
   168  167  168 1   
   169  167  172 1   
   170  168  169 1   
   171  168  170 1   
   172  168  171 1   
   173  174  175 1   
   174  174  176 1   
   175  177  178 1   
   176  177  179 1   
   177  180  181 1   
   178  180  182 1   
@<TRIPOS>SUBSTRUCTURE
     1 MOL         1 TEMP              0 ****  ****    0 ROOT
