@<TRIPOS>MOLECULE
MOL
  192   187     1     0     0
SMALL
resp


@<TRIPOS>ATOM
      1 C1         12.3420    4.3930   -2.0780 c3        1 MOL     -0.342337
      2 C2         12.0220    3.1780   -1.1630 c         1 MOL      0.576836
      3 O1         12.9750    2.3980   -0.8620 o         1 MOL     -0.580835
      4 H1         12.9480    4.0620   -2.9220 hc        1 MOL      0.091132
      5 H2         11.4120    4.8260   -2.4470 hc        1 MOL      0.091132
      6 H3         12.8910    5.1430   -1.5090 hc        1 MOL      0.091132
      7 N1         10.8000    3.0060   -0.8110 n         1 MOL     -0.090773
      8 C3         10.3320    2.0640    0.1550 c3        1 MOL     -0.480719
      9 C4          8.8920    1.7490   -0.2600 c         1 MOL      0.427556
     10 O2          8.0830    2.5900   -0.8330 o         1 MOL     -0.546204
     11 C5         10.3680    2.7930    1.5520 c3        1 MOL      0.025773
     12 C6          9.8590    4.2230    1.6360 c         1 MOL      0.660260
     13 O3         10.2080    4.8950    2.6800 o         1 MOL     -0.727310
     14 O4          9.0840    4.6840    0.7820 o         1 MOL     -0.727310
     15 H4         10.0890    3.5840   -1.2310 hn        1 MOL      0.148410
     16 H5         10.9830    1.1980    0.2120 h1        1 MOL      0.158202
     17 H6         11.4210    2.8850    1.8280 hc        1 MOL      0.074723
     18 H7          9.8870    2.1730    2.3110 hc        1 MOL      0.074723
     19 N2          8.6010    0.4440   -0.0790 n         1 MOL     -0.106457
     20 C7          7.3760   -0.1560   -0.4150 c3        1 MOL     -0.197497
     21 C8          6.3250   -0.0690    0.6880 c         1 MOL      0.513638
     22 O5          6.5970   -0.4770    1.8040 o         1 MOL     -0.500235
     23 C9          7.4400   -1.6700   -0.8370 c3        1 MOL     -0.403550
     24 C10         8.2600   -1.9230   -2.1560 c3        1 MOL      0.037651
     25 C11         8.2930   -3.4740   -2.5000 c3        1 MOL      0.209001
     26 C12         9.4040   -3.8780   -3.4830 c3        1 MOL     -0.018113
     27 N3          9.4300   -5.3280   -3.7960 n4        1 MOL     -0.071333
     28 H8          9.2620   -0.1020    0.4550 hn        1 MOL      0.300775
     29 H9          6.9570    0.4010   -1.2490 h1        1 MOL      0.149378
     30 H10         6.4220   -1.9150   -1.1600 hc        1 MOL      0.165865
     31 H11         7.9660   -2.1800   -0.0310 hc        1 MOL      0.165865
     32 H12         9.2720   -1.5540   -1.9750 hc        1 MOL      0.010703
     33 H13         7.8760   -1.3970   -3.0240 hc        1 MOL      0.010703
     34 H14         7.3900   -3.6810   -3.0750 hc        1 MOL     -0.040922
     35 H15         8.3710   -4.0750   -1.5970 hc        1 MOL     -0.040922
     36 H16        10.3370   -3.4620   -3.0860 hx        1 MOL      0.050784
     37 H17         9.1330   -3.4170   -4.4310 hx        1 MOL      0.050784
     38 H18         9.9140   -5.8760   -3.0910 hn        1 MOL      0.194366
     39 H19         8.5160   -5.7500   -3.8440 hn        1 MOL      0.194366
     40 H20         9.9490   -5.5160   -4.6470 hn        1 MOL      0.194366
     41 N4          5.1140    0.4400    0.3750 n         1 MOL     -0.361720
     42 C13         3.9920    0.4470    1.2440 c3        1 MOL      0.015207
     43 C14         2.7000    0.5910    0.4320 c         1 MOL      0.330596
     44 O6          2.7430    1.2090   -0.6090 o         1 MOL     -0.511508
     45 C15         4.0970    1.6620    2.2220 c3        1 MOL     -0.008902
     46 C16         4.9700    2.8390    1.6990 c         1 MOL      0.516899
     47 O7          6.2200    2.8330    1.9220 o         1 MOL     -0.632263
     48 O8          4.4260    3.8280    1.1670 o         1 MOL     -0.632263
     49 H21         5.0070    1.0800   -0.4020 hn        1 MOL      0.213037
     50 H22         4.0850   -0.4360    1.8800 h1        1 MOL      0.134761
     51 H23         4.6420    1.3120    3.0940 hc        1 MOL      0.026571
     52 H24         3.1660    1.9960    2.6810 hc        1 MOL      0.026571
     53 N5          1.5170    0.3890    0.8870 n         1 MOL     -0.191462
     54 C17         1.1700   -0.0860    2.2590 c3        1 MOL     -0.228777
     55 C18         1.6350   -1.5130    2.5790 c         1 MOL      0.561810
     56 O9          2.3800   -2.0940    1.8610 o         1 MOL     -0.522674
     57 H25         0.7810    0.6630    0.2400 hn        1 MOL      0.259654
     58 H26         0.0940   -0.0240    2.4040 h1        1 MOL      0.120572
     59 H27         1.5390    0.5340    3.0790 h1        1 MOL      0.120572
     60 N6          1.0920   -2.0840    3.6710 n         1 MOL     -0.463735
     61 C19         1.5120   -3.4820    4.0620 c3        1 MOL      0.005033
     62 C20         0.9360   -4.5000    3.0810 c         1 MOL      0.572213
     63 O10        -0.3080   -4.6070    3.0210 o         1 MOL     -0.537997
     64 C21         1.3390   -3.5380    5.6100 c3        1 MOL     -0.166456
     65 C22         1.9010   -4.8910    6.1120 c         1 MOL      0.641024
     66 O11         1.7870   -5.9050    5.4110 o         1 MOL     -0.624130
     67 O12         2.3760   -4.9560    7.2810 o         1 MOL     -0.624130
     68 H28         0.3920   -1.6210    4.2370 hn        1 MOL      0.304572
     69 H29         2.5920   -3.5430    3.9710 h1        1 MOL      0.072298
     70 H30         0.3380   -3.3520    5.9920 hc        1 MOL      0.060932
     71 H31         1.9240   -2.7410    6.0770 hc        1 MOL      0.060932
     72 N7          1.7570   -5.1790    2.2910 n         1 MOL     -0.410636
     73 C23         1.2860   -6.1600    1.2900 c3        1 MOL      0.134265
     74 C24         1.1230   -5.5610   -0.0460 c         1 MOL      0.382856
     75 O13         0.7330   -6.3100   -0.9740 o         1 MOL     -0.552894
     76 H32         2.7380   -4.9510    2.3800 hn        1 MOL      0.265161
     77 H33         0.3140   -6.5840    1.5460 h1        1 MOL      0.062329
     78 H34         1.9510   -7.0230    1.2520 h1        1 MOL      0.062329
     79 N8          1.4050   -4.2490   -0.1710 n         1 MOL     -0.163764
     80 C25         1.4080   -3.5460   -1.4740 c3        1 MOL      0.010834
     81 C26         0.4500   -2.3530   -1.3810 c         1 MOL      0.235628
     82 O14        -0.0850   -2.0550   -0.3290 o         1 MOL     -0.195711
     83 C27         2.8790   -3.1430   -1.8880 c3        1 MOL      0.430983
     84 C28         3.8810   -4.2790   -1.7260 c3        1 MOL     -0.389161
     85 O15         2.9040   -2.7760   -3.2750 oh        1 MOL     -0.656663
     86 H35         1.4070   -3.7170    0.6860 hn        1 MOL      0.067282
     87 H36         1.0110   -4.1660   -2.2800 h1        1 MOL      0.077623
     88 H37         3.1960   -2.3340   -1.2260 h1        1 MOL     -0.005383
     89 H38         3.7720   -2.5160   -3.5900 ho        1 MOL      0.406262
     90 H39         3.9670   -4.7650   -0.7550 hc        1 MOL      0.081540
     91 H40         3.8070   -4.9960   -2.5440 hc        1 MOL      0.081540
     92 H41         4.8710   -3.8300   -1.7860 hc        1 MOL      0.081540
     93 N9          0.1310   -1.7200   -2.5040 n         1 MOL     -0.106054
     94 C29        -0.5860   -0.4490   -2.6240 c3        1 MOL     -0.297423
     95 C30        -2.0310   -0.4540   -1.9780 c         1 MOL      0.723754
     96 O16        -2.4780    0.5960   -1.5510 o         1 MOL     -0.537590
     97 C31        -0.6060   -0.0080   -4.1200 c3        1 MOL      0.108406
     98 C32         0.7840   -0.2070   -4.8760 c3        1 MOL     -0.097496
     99 C33        -1.0480    1.4890   -4.1560 c3        1 MOL     -0.251728
    100 C34         2.0900    0.4100   -4.2860 c3        1 MOL     -0.005397
    101 H42         0.3620   -2.1470   -3.3930 hn        1 MOL      0.209899
    102 H43        -0.0500    0.3200   -2.0630 h1        1 MOL      0.115192
    103 H44        -1.3900   -0.5710   -4.6320 hc        1 MOL      0.020739
    104 H45         0.6820    0.0900   -5.9220 hc        1 MOL      0.031692
    105 H46         0.9640   -1.2710   -5.0020 hc        1 MOL      0.031692
    106 H47        -0.2170    2.0570   -3.7310 hc        1 MOL      0.079298
    107 H48        -0.9400    1.8330   -5.1870 hc        1 MOL      0.079298
    108 H49        -2.0360    1.6790   -3.7560 hc        1 MOL      0.079298
    109 H50         1.9970    1.4900   -4.3070 hc        1 MOL     -0.003812
    110 H51         2.2690    0.1500   -3.2440 hc        1 MOL     -0.003812
    111 H52         2.9920    0.1640   -4.8470 hc        1 MOL     -0.003812
    112 N10        -2.5910   -1.6910   -1.7620 n         1 MOL     -0.535053
    113 C35        -3.8290   -1.8930   -0.9510 c3        1 MOL     -0.087464
    114 C36        -5.0070   -2.4580   -1.6410 c         1 MOL      0.705407
    115 O17        -4.9100   -3.3330   -2.5190 o         1 MOL     -0.544830
    116 C37        -3.4240   -2.6530    0.3300 c3        1 MOL      0.329648
    117 C38        -2.8970   -4.1010    0.1800 c3        1 MOL     -0.256132
    118 O18        -2.3990   -1.9670    0.9750 oh        1 MOL     -0.549711
    119 H53        -2.0670   -2.4780   -2.1270 hn        1 MOL      0.238450
    120 H54        -4.0720   -0.8850   -0.6290 h1        1 MOL      0.106460
    121 H55        -4.2280   -2.6980    1.0680 h1        1 MOL      0.032814
    122 H56        -1.6730   -1.8980    0.3460 ho        1 MOL      0.222742
    123 H57        -2.3560   -4.4340    1.0690 hc        1 MOL      0.076148
    124 H58        -3.5860   -4.8640   -0.1740 hc        1 MOL      0.076148
    125 H59        -2.0920   -3.9860   -0.5460 hc        1 MOL      0.076148
    126 N11        -6.1680   -2.0120   -1.1630 n         1 MOL     -0.659728
    127 C39        -7.4280   -2.5720   -1.6410 c3        1 MOL      0.040068
    128 C40        -8.5320   -1.5000   -1.7910 c         1 MOL      0.634157
    129 O19        -9.1470   -1.3000   -2.8550 o         1 MOL     -0.574627
    130 C41        -7.9050   -3.7230   -0.7490 c3        1 MOL      0.220064
    131 C42        -9.3320   -4.1820   -0.9080 c3        1 MOL     -0.223300
    132 O20        -7.8250   -3.3320    0.6090 oh        1 MOL     -0.620962
    133 H60        -6.1800   -1.3920   -0.3720 hn        1 MOL      0.315182
    134 H61        -7.3980   -3.0610   -2.6220 h1        1 MOL      0.080839
    135 H62        -7.3250   -4.6130   -1.0020 h1        1 MOL      0.052140
    136 H63        -7.4620   -4.0450    1.1360 ho        1 MOL      0.415339
    137 H64        -9.4800   -4.3900   -1.9710 hc        1 MOL      0.055486
    138 H65        -9.6060   -5.0580   -0.3320 hc        1 MOL      0.055486
    139 H66       -10.0290   -3.3700   -0.6820 hc        1 MOL      0.055486
    140 N12        -8.8180   -0.8260   -0.6830 n         1 MOL     -0.366624
    141 C43        -9.7100    0.3500   -0.6120 c3        1 MOL     -0.059380
    142 C44        -9.2060    1.4680    0.3820 c         1 MOL      0.458442
    143 O21        -8.7760    1.1030    1.4170 o         1 MOL     -0.469263
    144 C45       -11.0960   -0.2240   -0.2710 c3        1 MOL      0.043775
    145 C46       -12.2660    0.7530   -0.3910 c3        1 MOL     -0.105747
    146 C47       -13.5200    0.0660    0.0720 c3        1 MOL      0.182957
    147 C48       -14.8310    0.8610    0.0700 c3        1 MOL     -0.025500
    148 N13       -16.0790    0.0710    0.3040 n4        1 MOL     -0.265669
    149 H67        -8.5200   -1.2900    0.1680 hn        1 MOL      0.260575
    150 H68        -9.6730    0.7890   -1.6120 h1        1 MOL      0.059538
    151 H69       -11.0040   -0.6370    0.7350 hc        1 MOL      0.036212
    152 H70       -11.2930   -1.0940   -0.9060 hc        1 MOL      0.036212
    153 H71       -12.3670    1.0840   -1.4220 hc        1 MOL      0.010895
    154 H72       -12.1120    1.5920    0.2940 hc        1 MOL      0.010895
    155 H73       -13.2550   -0.2840    1.0710 hc        1 MOL     -0.021015
    156 H74       -13.6720   -0.8040   -0.5730 hc        1 MOL     -0.021015
    157 H75       -15.0500    1.3940   -0.8540 hx        1 MOL      0.095358
    158 H76       -14.7660    1.5370    0.9260 hx        1 MOL      0.095358
    159 H77       -16.8540    0.7130    0.4180 hn        1 MOL      0.262484
    160 H78       -16.2100   -0.5320   -0.4930 hn        1 MOL      0.262484
    161 H79       -16.1440   -0.4710    1.1500 hn        1 MOL      0.262484
    162 N14        -9.3970    2.7690    0.1740 n         1 MOL     -0.352901
    163 C49        -8.9670    3.7980    1.1410 c3        1 MOL      0.084981
    164 C50        -7.3890    3.8260    1.2110 c         1 MOL      0.335102
    165 O22        -6.8520    3.9010    2.3130 o         1 MOL     -0.494628
    166 C51        -9.4990    5.2130    0.7830 c3        1 MOL      0.232377
    167 C52       -11.0290    5.2010    0.8440 c3        1 MOL     -0.317870
    168 C53       -11.5580    6.6280    0.6740 c         1 MOL      0.665956
    169 O23       -12.1940    7.1500    1.6350 o         1 MOL     -0.646027
    170 O24       -11.2580    7.3210   -0.3310 o         1 MOL     -0.646027
    171 H80        -9.8180    3.0300   -0.7080 hn        1 MOL      0.285137
    172 H81        -9.3630    3.4870    2.1050 h1        1 MOL      0.071447
    173 H82        -9.1340    5.4160   -0.2270 hc        1 MOL     -0.003386
    174 H83        -9.1760    5.9450    1.5220 hc        1 MOL     -0.003386
    175 H84       -11.3030    4.9790    1.8780 hc        1 MOL      0.033016
    176 H85       -11.3670    4.5620    0.0220 hc        1 MOL      0.033016
    177 N15        -6.6330    3.7880    0.0880 n         1 MOL     -0.324888
    178 C54        -6.9240    4.2170   -1.2900 c3        1 MOL     -0.070053
    179 H86        -6.1380    3.8580   -1.9550 h1        1 MOL      0.050729
    180 H87        -7.8830    3.8040   -1.6060 h1        1 MOL      0.050729
    181 H88        -6.9660    5.3050   -1.3320 h1        1 MOL      0.050729
    182 H89        -5.7020    3.4630    0.2860 hn        1 MOL      0.292575
    183 Ca1         6.6010    4.6680    0.1100 Ca        1 MOL      1.801671
    184 O25         4.2680    6.1130   -0.8680 oh        1 MOL     -0.991088
    185 H90         4.2220    6.3920   -1.7860 ho        1 MOL      0.476026
    186 H91         3.4750    6.4570   -0.4780 ho        1 MOL      0.476026
    187 O26         5.2620    3.0910   -1.6830 oh        1 MOL     -0.991088
    188 H92         4.3820    3.4650   -1.7670 ho        1 MOL      0.476026
    189 H93         5.4030    2.6230   -2.5020 ho        1 MOL      0.476026
    190 O27         7.3400    5.7850    2.6220 oh        1 MOL     -0.991088
    191 H94         7.3130    6.1860    3.4910 ho        1 MOL      0.476026
    192 H95         8.2330    5.4600    2.5440 ho        1 MOL      0.476026
@<TRIPOS>BOND
     1    1    2 1   
     2    1    4 1   
     3    1    5 1   
     4    1    6 1   
     5    2    3 2   
     6    2    7 1   
     7    7    8 1   
     8    7   15 1   
     9    8    9 1   
    10    8   11 1   
    11    8   16 1   
    12    9   10 2   
    13    9   19 1   
    14   11   12 1   
    15   11   17 1   
    16   11   18 1   
    17   12   13 1   
    18   12   14 1   
    19   19   20 1   
    20   19   28 1   
    21   20   21 1   
    22   20   23 1   
    23   20   29 1   
    24   21   22 2   
    25   21   41 1   
    26   23   24 1   
    27   23   30 1   
    28   23   31 1   
    29   24   25 1   
    30   24   32 1   
    31   24   33 1   
    32   25   26 1   
    33   25   34 1   
    34   25   35 1   
    35   26   27 1   
    36   26   36 1   
    37   26   37 1   
    38   27   38 1   
    39   27   39 1   
    40   27   40 1   
    41   41   42 1   
    42   41   49 1   
    43   42   43 1   
    44   42   45 1   
    45   42   50 1   
    46   43   44 2   
    47   43   53 1   
    48   45   46 1   
    49   45   51 1   
    50   45   52 1   
    51   46   47 1   
    52   46   48 1   
    53   53   54 1   
    54   53   57 1   
    55   54   55 1   
    56   54   58 1   
    57   54   59 1   
    58   55   56 2   
    59   55   60 1   
    60   60   61 1   
    61   60   68 1   
    62   61   62 1   
    63   61   64 1   
    64   61   69 1   
    65   62   63 2   
    66   62   72 1   
    67   64   65 1   
    68   64   70 1   
    69   64   71 1   
    70   65   66 1   
    71   65   67 1   
    72   72   73 1   
    73   72   76 1   
    74   73   74 1   
    75   73   77 1   
    76   73   78 1   
    77   74   75 2   
    78   74   79 1   
    79   79   80 1   
    80   79   86 1   
    81   80   81 1   
    82   80   83 1   
    83   80   87 1   
    84   81   82 2   
    85   81   93 1   
    86   83   84 1   
    87   83   85 1   
    88   83   88 1   
    89   84   90 1   
    90   84   91 1   
    91   84   92 1   
    92   85   89 1   
    93   93   94 1   
    94   93  101 1   
    95   94   95 1   
    96   94   97 1   
    97   94  102 1   
    98   95   96 2   
    99   95  112 1   
   100   97   98 1   
   101   97   99 1   
   102   97  103 1   
   103   98  100 1   
   104   98  104 1   
   105   98  105 1   
   106   99  106 1   
   107   99  107 1   
   108   99  108 1   
   109  100  109 1   
   110  100  110 1   
   111  100  111 1   
   112  112  113 1   
   113  112  119 1   
   114  113  114 1   
   115  113  116 1   
   116  113  120 1   
   117  114  115 2   
   118  114  126 1   
   119  116  117 1   
   120  116  118 1   
   121  116  121 1   
   122  117  123 1   
   123  117  124 1   
   124  117  125 1   
   125  118  122 1   
   126  126  127 1   
   127  126  133 1   
   128  127  128 1   
   129  127  130 1   
   130  127  134 1   
   131  128  129 2   
   132  128  140 1   
   133  130  131 1   
   134  130  132 1   
   135  130  135 1   
   136  131  137 1   
   137  131  138 1   
   138  131  139 1   
   139  132  136 1   
   140  140  141 1   
   141  140  149 1   
   142  141  142 1   
   143  141  144 1   
   144  141  150 1   
   145  142  143 2   
   146  142  162 1   
   147  144  145 1   
   148  144  151 1   
   149  144  152 1   
   150  145  146 1   
   151  145  153 1   
   152  145  154 1   
   153  146  147 1   
   154  146  155 1   
   155  146  156 1   
   156  147  148 1   
   157  147  157 1   
   158  147  158 1   
   159  148  159 1   
   160  148  160 1   
   161  148  161 1   
   162  162  163 1   
   163  162  171 1   
   164  163  164 1   
   165  163  166 1   
   166  163  172 1   
   167  164  165 2   
   168  164  177 1   
   169  166  167 1   
   170  166  173 1   
   171  166  174 1   
   172  167  168 1   
   173  167  175 1   
   174  167  176 1   
   175  168  169 1   
   176  168  170 1   
   177  177  178 1   
   178  177  182 1   
   179  178  179 1   
   180  178  180 1   
   181  178  181 1   
   182  184  185 1   
   183  184  186 1   
   184  187  188 1   
   185  187  189 1   
   186  190  191 1   
   187  190  192 1   
@<TRIPOS>SUBSTRUCTURE
     1 MOL         1 TEMP              0 ****  ****    0 ROOT
