@<TRIPOS>MOLECULE
MOL
  181   177     1     0     0
SMALL
resp


@<TRIPOS>ATOM
      1 C1         10.6990    6.8770    0.8440 c3        1 MOL     -0.443192
      2 C2          9.7020    5.7030    1.0700 c         1 MOL      0.736035
      3 O1          8.7290    5.8260    1.8650 o         1 MOL     -0.616562
      4 H1         10.4800    7.3610   -0.1070 hc        1 MOL      0.114279
      5 H2         10.5980    7.6010    1.6510 hc        1 MOL      0.114279
      6 H3         11.7180    6.4900    0.8260 hc        1 MOL      0.114279
      7 N1          9.9180    4.5150    0.5850 n         1 MOL     -0.691931
      8 C3         10.7800    4.1550   -0.5360 c3        1 MOL      0.377430
      9 C4         11.8090    3.0480   -0.1660 c         1 MOL      0.418099
     10 O2         12.8720    2.9520   -0.7200 o         1 MOL     -0.557205
     11 C5          9.9750    3.7570   -1.7510 c3        1 MOL     -0.488556
     12 C6          8.8890    2.6630   -1.5400 c         1 MOL      0.866327
     13 O3          8.2140    2.1910   -2.4670 o         1 MOL     -0.777983
     14 O4          8.8040    2.0590   -0.4320 o         1 MOL     -0.777983
     15 H4          9.3120    3.8380    1.0180 hn        1 MOL      0.362801
     16 H5         11.4740    4.9420   -0.8100 h1        1 MOL      0.010845
     17 H6         10.5980    3.3040   -2.5270 hc        1 MOL      0.123946
     18 H7          9.4550    4.6380   -2.1070 hc        1 MOL      0.123946
     19 N2         11.5390    2.2470    0.8620 n         1 MOL     -0.394863
     20 C7         12.3070    1.0910    1.2550 c3        1 MOL      0.266456
     21 C8         11.7620   -0.2900    0.7220 c         1 MOL      0.378330
     22 O5         12.5210   -1.2370    0.8280 o         1 MOL     -0.558134
     23 C9         12.2150    1.1110    2.8230 c3        1 MOL     -0.319390
     24 H8         10.7730    2.5850    1.4270 hn        1 MOL      0.258161
     25 H9         13.3700    1.1990    1.0560 h1        1 MOL      0.054677
     26 H10        11.1760    1.0360    3.1220 hc        1 MOL      0.084520
     27 H11        12.8640    0.3310    3.2000 hc        1 MOL      0.084520
     28 H12        12.7430    1.9960    3.1820 hc        1 MOL      0.084520
     29 N3         10.5740   -0.4090    0.1670 n         1 MOL     -0.226759
     30 C10         9.9800   -1.7170   -0.0100 c3        1 MOL      0.046557
     31 C11         9.0510   -1.8160   -1.2080 c         1 MOL      0.419783
     32 O6          8.6790   -0.7870   -1.8040 o         1 MOL     -0.528979
     33 C12         9.1690   -2.0860    1.2370 c3        1 MOL     -0.131645
     34 C13         8.3650   -0.9220    1.7640 c         1 MOL      0.699152
     35 O7          7.4650   -0.5080    1.0100 o         1 MOL     -0.682838
     36 O8          8.5440   -0.4340    2.8850 o         1 MOL     -0.682838
     37 H13        10.0200    0.4360    0.0810 hn        1 MOL      0.235633
     38 H14        10.7640   -2.4460   -0.2110 h1        1 MOL      0.045406
     39 H15         9.8570   -2.4040    2.0210 hc        1 MOL      0.020982
     40 H16         8.5800   -2.9820    1.0570 hc        1 MOL      0.020982
     41 N4          8.6300   -2.9700   -1.5340 n         1 MOL     -0.255886
     42 C14         7.6410   -3.3100   -2.6460 c3        1 MOL     -0.416961
     43 C15         6.2240   -2.8860   -2.2550 c         1 MOL      0.834748
     44 O9          6.0210   -1.9100   -1.5830 o         1 MOL     -0.672447
     45 H17         8.7840   -3.6960   -0.8550 hn        1 MOL      0.264860
     46 H18         7.5860   -4.3890   -2.8030 h1        1 MOL      0.170326
     47 H19         7.9320   -2.7150   -3.5070 h1        1 MOL      0.170326
     48 N5          5.1650   -3.6300   -2.6460 n         1 MOL     -0.615050
     49 C16         3.7470   -3.2200   -2.6750 c3        1 MOL      0.177772
     50 C17         3.0830   -3.8960   -1.5030 c         1 MOL      0.705562
     51 O10         3.4230   -5.0040   -1.0960 o         1 MOL     -0.563523
     52 C18         3.0920   -3.4440   -4.0300 c3        1 MOL     -0.357625
     53 C19         3.8150   -2.6050   -5.0850 c         1 MOL      0.780085
     54 N6          4.2290   -3.2350   -6.1330 n         1 MOL     -0.816945
     55 O11         4.0340   -1.4050   -4.9570 o         1 MOL     -0.634663
     56 H20         5.3470   -4.3860   -3.2860 hn        1 MOL      0.288253
     57 H21         3.6680   -2.1550   -2.4920 h1        1 MOL      0.047137
     58 H22         2.0390   -3.1450   -3.9640 hc        1 MOL      0.107561
     59 H23         3.1320   -4.5010   -4.3150 hc        1 MOL      0.107561
     60 H24         3.8260   -4.1230   -6.3770 hn        1 MOL      0.381748
     61 H25         4.7030   -2.6150   -6.7780 hn        1 MOL      0.381748
     62 N7          2.0910   -3.1530   -0.9890 n         1 MOL     -0.699152
     63 C20         1.3500   -3.3720    0.2350 c3        1 MOL      0.237250
     64 C21         1.2450   -2.1200    1.1320 c         1 MOL      0.482124
     65 O12         1.7220   -1.0450    0.7320 o         1 MOL     -0.535554
     66 H26         1.8520   -2.2430   -1.3270 hn        1 MOL      0.358581
     67 H27         1.7830   -4.2000    0.7970 h1        1 MOL      0.067032
     68 H28         0.3580   -3.7330   -0.0550 h1        1 MOL      0.067032
     69 N8          0.5120   -2.1840    2.2920 n         1 MOL     -0.503757
     70 C22        -0.2070   -3.3500    2.9170 c3        1 MOL     -0.079827
     71 C23        -1.6690   -3.2230    2.9760 c         1 MOL      0.655485
     72 O13        -2.4160   -4.1520    2.6920 o         1 MOL     -0.575169
     73 C24         0.3120   -3.7690    4.3290 c3        1 MOL      0.411450
     74 C25         1.8130   -3.8780    4.3210 c3        1 MOL     -0.403977
     75 O14        -0.0600   -2.8550    5.3180 oh        1 MOL     -0.571875
     76 H29         0.3910   -1.3090    2.7900 hn        1 MOL      0.328075
     77 H30        -0.1240   -4.2460    2.2990 h1        1 MOL      0.031868
     78 H31        -0.1240   -4.7340    4.5770 h1        1 MOL      0.019324
     79 H32         0.6670   -2.2310    5.4120 ho        1 MOL      0.371438
     80 H33         2.0900   -4.6260    3.5740 hc        1 MOL      0.093289
     81 H34         2.2720   -2.9350    4.0350 hc        1 MOL      0.093289
     82 H35         2.1540   -4.1800    5.3130 hc        1 MOL      0.093289
     83 N9         -2.1550   -1.9680    3.1490 n         1 MOL     -0.355961
     84 C26        -3.5160   -1.5410    3.1010 c3        1 MOL     -0.016979
     85 C27        -3.5770   -0.5660    1.8960 c         1 MOL      0.562203
     86 O15        -2.6450    0.1970    1.7810 o         1 MOL     -0.541922
     87 C28        -3.9170   -0.7750    4.3850 c3        1 MOL      0.128644
     88 C29        -3.5350   -1.5420    5.7840 c3        1 MOL      0.148518
     89 C30        -5.3780   -0.2990    4.4720 c3        1 MOL     -0.172536
     90 C31        -4.4260   -2.8650    5.8280 c3        1 MOL     -0.206815
     91 H36        -1.5120   -1.1880    3.1850 hn        1 MOL      0.207955
     92 H37        -4.2630   -2.3230    2.9930 h1        1 MOL      0.092869
     93 H38        -3.3550    0.1580    4.4520 hc        1 MOL     -0.043692
     94 H39        -3.7110   -0.8840    6.6370 hc        1 MOL     -0.053934
     95 H40        -2.4710   -1.7830    5.7360 hc        1 MOL     -0.053934
     96 H41        -5.5540    0.2980    3.5860 hc        1 MOL      0.062170
     97 H42        -6.0120   -1.1800    4.5900 hc        1 MOL      0.062170
     98 H43        -5.5040    0.3410    5.3480 hc        1 MOL      0.062170
     99 H44        -4.2640   -3.5230    4.9740 hc        1 MOL      0.034750
    100 H45        -3.9160   -3.3170    6.6800 hc        1 MOL      0.034750
    101 H46        -5.4540   -2.6010    6.0660 hc        1 MOL      0.034750
    102 N10        -4.6040   -0.5490    0.9410 n         1 MOL     -0.526036
    103 C32        -5.8760   -1.2620    0.9640 c3        1 MOL      0.266954
    104 C33        -6.9620   -0.6830   -0.0310 c         1 MOL      0.563331
    105 O16        -6.6370   -0.1190   -1.0400 o         1 MOL     -0.475265
    106 C34        -5.7280   -2.7110    0.6350 c3        1 MOL     -0.160869
    107 C35        -4.9880   -3.0830   -0.6400 c         1 MOL      0.736190
    108 O17        -3.8600   -2.5640   -0.9510 o         1 MOL     -0.724979
    109 O18        -5.4590   -3.8460   -1.4710 o         1 MOL     -0.724979
    110 H47        -4.4980    0.2000    0.2800 hn        1 MOL      0.290635
    111 H48        -6.3740   -1.1080    1.9140 h1        1 MOL     -0.057800
    112 H49        -6.7310   -3.1430    0.6070 hc        1 MOL     -0.006326
    113 H50        -5.2610   -3.2740    1.4500 hc        1 MOL     -0.006326
    114 N11        -8.2450   -1.0500    0.1890 n         1 MOL     -0.638216
    115 C36        -9.3850   -0.7040   -0.6900 c3        1 MOL      0.506342
    116 C37       -10.5200    0.0870    0.0080 c         1 MOL      0.089607
    117 O19       -10.8360   -0.2040    1.1190 o         1 MOL     -0.466380
    118 C38        -9.9230   -2.0230   -1.3150 c3        1 MOL     -0.031931
    119 C39       -11.1480   -1.8840   -2.3000 ca        1 MOL      0.041434
    120 C40       -10.9800   -1.1790   -3.5090 ca        1 MOL     -0.182006
    121 C41       -12.4380   -2.2430   -1.8390 ca        1 MOL     -0.182006
    122 C42       -12.0510   -0.9480   -4.3420 ca        1 MOL     -0.083850
    123 C43       -13.5010   -1.9250   -2.6350 ca        1 MOL     -0.083850
    124 C44       -13.3120   -1.2130   -3.8640 ca        1 MOL     -0.133994
    125 H51        -8.4800   -1.4000    1.1040 hn        1 MOL      0.317663
    126 H52        -8.9990   -0.1670   -1.5560 h1        1 MOL     -0.051353
    127 H53       -10.2740   -2.6590   -0.4940 hc        1 MOL      0.011416
    128 H54        -9.1720   -2.6300   -1.8110 hc        1 MOL      0.011416
    129 H55       -10.0010   -0.8750   -3.8570 ha        1 MOL      0.136009
    130 H56       -12.5560   -2.5900   -0.8310 ha        1 MOL      0.136009
    131 H57       -11.8120   -0.5210   -5.2990 ha        1 MOL      0.093520
    132 H58       -14.5100   -2.1750   -2.3290 ha        1 MOL      0.093520
    133 H59       -14.1390   -1.0120   -4.5280 ha        1 MOL      0.084710
    134 N12       -11.1030    1.0360   -0.7320 n         1 MOL      0.307637
    135 C45       -10.6420    1.7860   -1.9130 c3        1 MOL     -0.000128
    136 C46        -9.3600    2.5310   -1.6360 c         1 MOL      0.418255
    137 O20        -8.3150    2.3580   -2.3570 o         1 MOL     -0.544857
    138 C47       -11.8410    2.7770   -2.2750 c3        1 MOL      0.011668
    139 C48       -12.9570    2.1550   -1.4900 c3        1 MOL      0.007050
    140 C49       -12.3560    1.5280   -0.2980 c3        1 MOL     -0.158648
    141 H60       -10.4880    1.1610   -2.7890 h1        1 MOL      0.036352
    142 H61       -11.5600    3.7490   -1.8770 hc        1 MOL      0.011604
    143 H62       -12.0250    2.8580   -3.3440 hc        1 MOL      0.011604
    144 H63       -13.7140    2.9010   -1.2480 hc        1 MOL     -0.009149
    145 H64       -13.3610    1.3470   -2.0970 hc        1 MOL     -0.009149
    146 H65       -12.0860    2.2290    0.4880 h1        1 MOL      0.053970
    147 H66       -12.9530    0.7080    0.1000 h1        1 MOL      0.053970
    148 N13        -9.2100    3.2880   -0.4840 n         1 MOL     -0.486446
    149 C50        -8.0250    4.0530   -0.1110 c3        1 MOL      0.234747
    150 C51        -7.9320    5.4440   -0.8140 c         1 MOL      0.426668
    151 O21        -8.6180    6.3810   -0.4960 o         1 MOL     -0.590225
    152 C52        -8.1100    4.2690    1.3610 c3        1 MOL      0.045851
    153 C53        -8.0470    2.9670    2.1370 c3        1 MOL     -0.023523
    154 C54        -7.6680    3.1040    3.6360 c         1 MOL      0.747160
    155 O22        -7.9500    2.2450    4.4660 o         1 MOL     -0.744389
    156 O23        -7.1290    4.1790    3.9790 o         1 MOL     -0.744389
    157 H67        -9.9680    3.2980    0.1820 hn        1 MOL      0.289072
    158 H68        -7.1020    3.5490   -0.3850 h1        1 MOL      0.071057
    159 H69        -8.9670    4.8230    1.7360 hc        1 MOL     -0.018999
    160 H70        -7.2050    4.7630    1.6950 hc        1 MOL     -0.018999
    161 H71        -7.3150    2.2840    1.7020 hc        1 MOL     -0.077106
    162 H72        -9.0000    2.4380    2.0730 hc        1 MOL     -0.077106
    163 N14        -7.0710    5.6490   -1.7740 n         1 MOL     -0.303720
    164 C55        -6.0940    4.7580   -2.4540 c3        1 MOL     -0.203538
    165 H73        -5.9020    5.1320   -3.4600 h1        1 MOL      0.093472
    166 H74        -5.1620    4.7430   -1.8880 h1        1 MOL      0.093472
    167 H75        -6.5000    3.7490   -2.5120 h1        1 MOL      0.093472
    168 H76        -7.1030    6.5080   -2.3030 hn        1 MOL      0.253402
    169 Ca1         6.6160    0.6600   -1.0570 Ca        1 MOL      1.741732
    170 O24         5.9070    2.2420    0.9500 oh        1 MOL     -0.839411
    171 H77         5.1440    2.8180    0.9870 ho        1 MOL      0.416268
    172 H78         6.0760    2.0140    1.8640 ho        1 MOL      0.416268
    173 O25         6.0090    0.1870   -3.7440 oh        1 MOL     -0.839411
    174 H79         5.3200   -0.2990   -4.2010 ho        1 MOL      0.416268
    175 H80         6.3270    0.8120   -4.3950 ho        1 MOL      0.416268
    176 O26         5.1850    2.6360   -2.1090 oh        1 MOL     -0.839411
    177 H81         4.2500    2.8550   -2.0670 ho        1 MOL      0.416268
    178 H82         5.4970    3.0650   -2.9040 ho        1 MOL      0.416268
    179 O27         4.1870    0.0200   -0.1440 oh        1 MOL     -0.839411
    180 H83         4.1220   -0.7660    0.4000 ho        1 MOL      0.416268
    181 H84         3.2880    0.2470   -0.3510 ho        1 MOL      0.416268
@<TRIPOS>BOND
     1    1    2 1   
     2    1    4 1   
     3    1    5 1   
     4    1    6 1   
     5    2    3 2   
     6    2    7 1   
     7    7    8 1   
     8    7   15 1   
     9    8    9 1   
    10    8   11 1   
    11    8   16 1   
    12    9   10 2   
    13    9   19 1   
    14   11   12 1   
    15   11   17 1   
    16   11   18 1   
    17   12   13 1   
    18   12   14 1   
    19   19   20 1   
    20   19   24 1   
    21   20   21 1   
    22   20   23 1   
    23   20   25 1   
    24   21   22 2   
    25   21   29 1   
    26   23   26 1   
    27   23   27 1   
    28   23   28 1   
    29   29   30 1   
    30   29   37 1   
    31   30   31 1   
    32   30   33 1   
    33   30   38 1   
    34   31   32 2   
    35   31   41 1   
    36   33   34 1   
    37   33   39 1   
    38   33   40 1   
    39   34   35 1   
    40   34   36 1   
    41   41   42 1   
    42   41   45 1   
    43   42   43 1   
    44   42   46 1   
    45   42   47 1   
    46   43   44 2   
    47   43   48 1   
    48   48   49 1   
    49   48   56 1   
    50   49   50 1   
    51   49   52 1   
    52   49   57 1   
    53   50   51 2   
    54   50   62 1   
    55   52   53 1   
    56   52   58 1   
    57   52   59 1   
    58   53   54 1   
    59   53   55 2   
    60   54   60 1   
    61   54   61 1   
    62   62   63 1   
    63   62   66 1   
    64   63   64 1   
    65   63   67 1   
    66   63   68 1   
    67   64   65 2   
    68   64   69 1   
    69   69   70 1   
    70   69   76 1   
    71   70   71 1   
    72   70   73 1   
    73   70   77 1   
    74   71   72 2   
    75   71   83 1   
    76   73   74 1   
    77   73   75 1   
    78   73   78 1   
    79   74   80 1   
    80   74   81 1   
    81   74   82 1   
    82   75   79 1   
    83   83   84 1   
    84   83   91 1   
    85   84   85 1   
    86   84   87 1   
    87   84   92 1   
    88   85   86 2   
    89   85  102 1   
    90   87   88 1   
    91   87   89 1   
    92   87   93 1   
    93   88   90 1   
    94   88   94 1   
    95   88   95 1   
    96   89   96 1   
    97   89   97 1   
    98   89   98 1   
    99   90   99 1   
   100   90  100 1   
   101   90  101 1   
   102  102  103 1   
   103  102  110 1   
   104  103  104 1   
   105  103  106 1   
   106  103  111 1   
   107  104  105 2   
   108  104  114 1   
   109  106  107 1   
   110  106  112 1   
   111  106  113 1   
   112  107  108 1   
   113  107  109 1   
   114  114  115 1   
   115  114  125 1   
   116  115  116 1   
   117  115  118 1   
   118  115  126 1   
   119  116  117 2   
   120  116  134 1   
   121  118  119 1   
   122  118  127 1   
   123  118  128 1   
   124  119  120 ar  
   125  119  121 ar  
   126  120  122 ar  
   127  120  129 1   
   128  121  123 ar  
   129  121  130 1   
   130  122  124 ar  
   131  122  131 1   
   132  123  124 ar  
   133  123  132 1   
   134  124  133 1   
   135  134  135 1   
   136  134  140 1   
   137  135  136 1   
   138  135  138 1   
   139  135  141 1   
   140  136  137 2   
   141  136  148 1   
   142  138  139 1   
   143  138  142 1   
   144  138  143 1   
   145  139  140 1   
   146  139  144 1   
   147  139  145 1   
   148  140  146 1   
   149  140  147 1   
   150  148  149 1   
   151  148  157 1   
   152  149  150 1   
   153  149  152 1   
   154  149  158 1   
   155  150  151 2   
   156  150  163 1   
   157  152  153 1   
   158  152  159 1   
   159  152  160 1   
   160  153  154 1   
   161  153  161 1   
   162  153  162 1   
   163  154  155 1   
   164  154  156 1   
   165  163  164 1   
   166  163  168 1   
   167  164  165 1   
   168  164  166 1   
   169  164  167 1   
   170  170  171 1   
   171  170  172 1   
   172  173  174 1   
   173  173  175 1   
   174  176  177 1   
   175  176  178 1   
   176  179  180 1   
   177  179  181 1   
@<TRIPOS>SUBSTRUCTURE
     1 MOL         1 TEMP              0 ****  ****    0 ROOT
