@<TRIPOS>MOLECULE
MOL
  178   175     1     0     0
SMALL
resp


@<TRIPOS>ATOM
      1 C1         -6.0000    7.8870    1.5950 c3        1 MOL     -0.398305
      2 C2         -7.1610    7.0010    1.0840 c         1 MOL      0.783193
      3 O1         -7.5740    7.2480    0.0060 o         1 MOL     -0.589309
      4 H1         -6.0560    7.9670    2.6810 hc        1 MOL      0.089061
      5 H2         -5.0480    7.4370    1.3130 hc        1 MOL      0.089061
      6 H3         -6.0790    8.8800    1.1530 hc        1 MOL      0.089061
      7 N1         -7.5390    5.9430    1.8690 n         1 MOL     -0.728999
      8 C3         -8.5360    4.9130    1.4630 c3        1 MOL      0.485918
      9 C4         -8.0930    3.9210    0.3740 c         1 MOL      0.322684
     10 O2         -8.8030    2.9190    0.1000 o         1 MOL     -0.420438
     11 C5         -9.0460    4.1590    2.7390 c3        1 MOL     -0.222262
     12 C6        -10.3150    3.3820    2.4760 c         1 MOL      0.634234
     13 O3        -11.1670    3.9920    1.8140 o         1 MOL     -0.704413
     14 O4        -10.3590    2.1550    2.7310 o         1 MOL     -0.704413
     15 H4         -7.0690    5.7240    2.7390 hn        1 MOL      0.311491
     16 H5         -9.3880    5.5260    1.2010 h1        1 MOL     -0.020782
     17 H6         -9.2700    4.8760    3.5370 hc        1 MOL      0.007106
     18 H7         -8.1770    3.6100    3.0850 hc        1 MOL      0.007106
     19 N2         -6.9830    4.2050   -0.3610 n         1 MOL     -0.532442
     20 C7         -6.3190    3.3810   -1.4080 c3        1 MOL      0.590802
     21 C8         -5.0130    2.7390   -0.8710 c         1 MOL      0.336913
     22 O5         -4.1920    3.4340   -0.1850 o         1 MOL     -0.554994
     23 C9         -5.9940    4.2980   -2.5690 c3        1 MOL     -0.293412
     24 H8         -6.4150    4.9930   -0.0890 hn        1 MOL      0.237266
     25 H9         -6.9990    2.5920   -1.7430 h1        1 MOL     -0.087884
     26 H10        -5.4470    5.1800   -2.2070 hc        1 MOL      0.070001
     27 H11        -5.3200    3.8230   -3.2770 hc        1 MOL      0.070001
     28 H12        -6.8770    4.6310   -3.0990 hc        1 MOL      0.070001
     29 N3         -4.5230    1.5530   -1.2180 n         1 MOL     -0.218096
     30 C10        -5.1900    0.4860   -1.9750 c3        1 MOL     -0.266079
     31 C11        -5.6680   -0.7020   -1.0920 c         1 MOL      0.634615
     32 O6         -5.1270   -0.9330    0.0030 o         1 MOL     -0.573847
     33 C12        -4.3330    0.1570   -3.2140 c3        1 MOL     -0.085579
     34 C13        -2.8270    0.1280   -3.0270 c         1 MOL      0.599957
     35 O7         -2.3490   -0.9190   -2.4960 o         1 MOL     -0.656869
     36 O8         -2.1090    1.0500   -3.4860 o         1 MOL     -0.656869
     37 H13        -3.6610    1.3820   -0.7340 hn        1 MOL      0.271350
     38 H14        -6.1580    0.8290   -2.3310 h1        1 MOL      0.121302
     39 H15        -4.6010    0.8670   -3.9930 hc        1 MOL      0.035599
     40 H16        -4.7150   -0.7780   -3.6380 hc        1 MOL      0.035599
     41 N4         -6.4750   -1.5820   -1.6660 n         1 MOL     -0.467925
     42 C14        -7.0830   -2.7850   -1.0530 c3        1 MOL      0.128276
     43 C15        -6.8700   -4.0580   -1.9010 c         1 MOL      0.482828
     44 O9         -7.8810   -4.5490   -2.4780 o         1 MOL     -0.564982
     45 H17        -6.8690   -1.3710   -2.5750 hn        1 MOL      0.296656
     46 H18        -8.1680   -2.7040   -0.9560 h1        1 MOL      0.044815
     47 H19        -6.6550   -3.0320   -0.0720 h1        1 MOL      0.044815
     48 N5         -5.6730   -4.5930   -2.0960 n         1 MOL     -0.431167
     49 C16        -4.3970   -4.0750   -1.5550 c3        1 MOL      0.077114
     50 C17        -4.2590   -4.5080   -0.0520 c         1 MOL      0.525323
     51 O10        -4.3730   -5.7010    0.2500 o         1 MOL     -0.564357
     52 C18        -3.2290   -4.5640   -2.4060 c3        1 MOL      0.091801
     53 C19        -1.8420   -4.3530   -1.7550 c         1 MOL      0.208386
     54 N6         -0.7770   -4.8940   -2.3260 n         1 MOL     -0.462599
     55 O11        -1.6750   -3.6280   -0.7860 o         1 MOL     -0.349370
     56 H20        -5.5930   -5.4190   -2.6710 hn        1 MOL      0.283853
     57 H21        -4.4110   -2.9910   -1.5930 h1        1 MOL      0.005660
     58 H22        -3.3100   -4.1000   -3.3910 hc        1 MOL      0.008453
     59 H23        -3.3690   -5.6110   -2.6690 hc        1 MOL      0.008453
     60 H24        -0.8550   -5.4060   -3.1920 hn        1 MOL      0.271578
     61 H25         0.1590   -4.7810   -1.9580 hn        1 MOL      0.271578
     62 N7         -4.0070   -3.5560    0.9220 n         1 MOL     -0.174345
     63 C20        -3.8960   -3.8780    2.3770 c3        1 MOL     -0.437123
     64 C21        -2.5140   -4.3620    2.7660 c         1 MOL      0.654641
     65 O12        -2.4370   -4.7430    3.9150 o         1 MOL     -0.598427
     66 H26        -3.6230   -2.6790    0.5970 hn        1 MOL      0.255344
     67 H27        -4.4900   -4.7240    2.7190 h1        1 MOL      0.171798
     68 H28        -4.0330   -3.0360    3.0530 h1        1 MOL      0.171798
     69 N8         -1.4940   -4.4990    1.9140 n         1 MOL     -0.373754
     70 C22        -0.1740   -4.8310    2.3550 c3        1 MOL     -0.023017
     71 C23         0.7080   -3.6040    2.1770 c         1 MOL      0.446594
     72 O13         0.4240   -2.6760    1.3860 o         1 MOL     -0.556118
     73 C24         0.4120   -6.0670    1.6390 c3        1 MOL      0.362946
     74 C25        -0.3350   -7.3190    2.1170 c3        1 MOL     -0.406551
     75 O14         0.2050   -6.0280    0.2060 oh        1 MOL     -0.587859
     76 H29        -1.6070   -4.0970    0.9920 hn        1 MOL      0.300638
     77 H30        -0.2100   -5.1110    3.4060 h1        1 MOL      0.049643
     78 H31         1.4630   -6.0590    1.9350 h1        1 MOL     -0.006781
     79 H32         0.6170   -5.2140   -0.0800 ho        1 MOL      0.364859
     80 H33         0.1730   -8.2090    1.7480 hc        1 MOL      0.107074
     81 H34        -0.3030   -7.3940    3.2110 hc        1 MOL      0.107074
     82 H35        -1.3740   -7.2700    1.7710 hc        1 MOL      0.107074
     83 N9          1.8620   -3.5470    2.7740 n         1 MOL     -0.326455
     84 C26         2.8300   -2.4980    2.6440 c3        1 MOL     -0.155858
     85 C27         3.8580   -3.0410    1.6760 c         1 MOL      0.803822
     86 O15         4.5540   -3.9580    1.9230 o         1 MOL     -0.609796
     87 C28         3.4420   -2.1490    4.0630 c3        1 MOL      0.093018
     88 C29         4.6050   -1.1560    4.0190 c3        1 MOL     -0.231491
     89 C30         2.4360   -1.4410    5.0420 c3        1 MOL     -0.258788
     90 C31         4.4650    0.1130    3.2010 c3        1 MOL     -0.094766
     91 H36         2.1590   -4.4190    3.1870 hn        1 MOL      0.229100
     92 H37         2.2750   -1.6520    2.2300 h1        1 MOL      0.238787
     93 H38         3.7660   -3.0630    4.5760 hc        1 MOL      0.028108
     94 H39         5.4850   -1.6470    3.5950 hc        1 MOL      0.063793
     95 H40         4.9290   -0.7880    4.9940 hc        1 MOL      0.063793
     96 H41         1.8810   -0.6660    4.5040 hc        1 MOL      0.069500
     97 H42         1.6970   -2.1550    5.3950 hc        1 MOL      0.069500
     98 H43         2.9840   -1.1500    5.9360 hc        1 MOL      0.069500
     99 H44         4.2140   -0.0120    2.1540 hc        1 MOL      0.039346
    100 H45         3.7150    0.7840    3.6240 hc        1 MOL      0.039346
    101 H46         5.4350    0.6110    3.2090 hc        1 MOL      0.039346
    102 N10         3.9630   -2.3170    0.5940 n         1 MOL     -0.508789
    103 C32         4.6480   -2.7360   -0.6560 c3        1 MOL      0.107259
    104 C33         5.7680   -1.7250   -1.1380 c         1 MOL      0.551656
    105 O16         6.4420   -1.8960   -2.1070 o         1 MOL     -0.559012
    106 C34         3.6090   -2.9270   -1.7210 c3        1 MOL     -0.336679
    107 C35         2.6540   -4.0610   -1.3760 c         1 MOL      0.609619
    108 O17         3.0920   -5.2240   -1.4860 o         1 MOL     -0.622848
    109 O18         1.4890   -3.9130   -0.9300 o         1 MOL     -0.622848
    110 H47         3.3700   -1.5130    0.5030 hn        1 MOL      0.130873
    111 H48         5.2090   -3.6490   -0.4430 h1        1 MOL      0.099194
    112 H49         4.0490   -3.1530   -2.6900 hc        1 MOL      0.107958
    113 H50         3.0670   -2.0020   -1.9140 hc        1 MOL      0.107958
    114 N11         6.0160   -0.6680   -0.3560 n         1 MOL     -0.568893
    115 C36         7.0360    0.3800   -0.4730 c3        1 MOL      0.646129
    116 C37         6.3810    1.8050   -0.4390 c         1 MOL      0.194015
    117 O19         5.8240    2.1480    0.5940 o         1 MOL     -0.441535
    118 C38         8.0820    0.2170    0.6130 c3        1 MOL     -0.482302
    119 C39         9.2320    1.2040    0.5440 ca        1 MOL      0.226835
    120 C40         9.7260    1.7600    1.6980 ca        1 MOL     -0.168774
    121 C41         9.9730    1.4090   -0.6690 ca        1 MOL     -0.168774
    122 C42        10.9380    2.4570    1.7540 ca        1 MOL     -0.131585
    123 C43        11.1190    2.2460   -0.7040 ca        1 MOL     -0.131585
    124 C44        11.6240    2.7460    0.5040 ca        1 MOL     -0.133700
    125 H51         5.4060   -0.6100    0.4450 hn        1 MOL      0.281314
    126 H52         7.5050    0.2000   -1.4430 h1        1 MOL     -0.068090
    127 H53         8.5950   -0.7140    0.4130 hc        1 MOL      0.129568
    128 H54         7.5340    0.2200    1.5550 hc        1 MOL      0.129568
    129 H55         9.1400    1.6040    2.5960 ha        1 MOL      0.117354
    130 H56         9.7600    0.9020   -1.5930 ha        1 MOL      0.117354
    131 H57        11.2870    2.7910    2.7220 ha        1 MOL      0.119007
    132 H58        11.7770    2.3650   -1.5600 ha        1 MOL      0.119007
    133 H59        12.5800    3.2410    0.5370 ha        1 MOL      0.108618
    134 N12         6.5620    2.6200   -1.5320 n         1 MOL     -0.052034
    135 C45         6.5270    4.0790   -1.4070 c3        1 MOL     -0.105872
    136 C46         5.1520    4.7290   -1.1490 c         1 MOL      0.524473
    137 O20         5.0400    5.9150   -1.0320 o         1 MOL     -0.535965
    138 C47         7.2910    4.6110   -2.6280 c3        1 MOL     -0.001392
    139 C48         7.1010    3.5360   -3.6990 c3        1 MOL     -0.116006
    140 C49         7.0320    2.2220   -2.8330 c3        1 MOL     -0.102783
    141 H60         7.1460    4.3060   -0.5390 h1        1 MOL      0.083458
    142 H61         6.9280    5.5800   -2.9760 hc        1 MOL      0.034518
    143 H62         8.3410    4.7160   -2.3280 hc        1 MOL      0.034518
    144 H63         6.1010    3.6980   -4.1070 hc        1 MOL      0.062404
    145 H64         7.8850    3.5600   -4.4570 hc        1 MOL      0.062404
    146 H65         6.3660    1.5330   -3.3500 h1        1 MOL      0.073054
    147 H66         8.0300    1.7810   -2.7510 h1        1 MOL      0.073054
    148 N13         4.1250    3.8950   -0.9250 n         1 MOL     -0.349386
    149 C50         2.8360    4.3440   -0.4500 c3        1 MOL     -0.067396
    150 C51         2.9110    5.0600    0.8820 c         1 MOL      0.509713
    151 O21         2.0540    5.9260    1.1260 o         1 MOL     -0.542955
    152 C52         1.8220    3.1830   -0.4760 c3        1 MOL     -0.004662
    153 C53         2.1170    2.1300    0.5970 c3        1 MOL      0.020713
    154 C54         1.5980    0.7350    0.3510 c         1 MOL      0.559277
    155 O22         0.3640    0.5580    0.4760 o         1 MOL     -0.700214
    156 O23         2.2920   -0.1340   -0.2050 o         1 MOL     -0.700214
    157 H67         4.3560    2.9210   -1.0440 hn        1 MOL      0.236086
    158 H68         2.3960    5.1080   -1.1060 h1        1 MOL      0.103411
    159 H69         1.8740    2.8460   -1.5140 hc        1 MOL      0.037943
    160 H70         0.8290    3.6330   -0.3740 hc        1 MOL      0.037943
    161 H71         1.8300    2.5300    1.5610 hc        1 MOL      0.020247
    162 H72         3.2040    2.0430    0.6550 hc        1 MOL      0.020247
    163 N14         3.8350    4.8100    1.8390 n         1 MOL     -0.198489
    164 C55         3.7930    5.4460    3.1520 c3        1 MOL     -0.176755
    165 H73         2.7620    5.6910    3.4040 h1        1 MOL      0.084804
    166 H74         4.1970    4.7640    3.9000 h1        1 MOL      0.084804
    167 H75         4.3890    6.3590    3.1330 h1        1 MOL      0.084804
    168 H76         4.3790    3.9720    1.7180 hn        1 MOL      0.160919
    169 Ca1         0.0010   -1.4970   -1.1530 Ca        1 MOL      1.695687
    170 O24         0.5310   -2.2320   -3.7170 oh        1 MOL     -0.842761
    171 H77         0.8590   -1.8890   -4.5470 ho        1 MOL      0.404704
    172 H78        -0.0160   -2.9710   -3.9700 ho        1 MOL      0.404704
    173 O25        -2.1200   -1.2950    0.6340 oh        1 MOL     -0.842761
    174 H79        -2.1440   -1.1880    1.5820 ho        1 MOL      0.404704
    175 H80        -2.8780   -0.7940    0.3110 ho        1 MOL      0.404704
    176 O26         0.4280    0.5100   -3.0210 oh        1 MOL     -0.842761
    177 H81         0.9310    1.2430   -3.3650 ho        1 MOL      0.404704
    178 H82        -0.4730    0.6890   -3.3050 ho        1 MOL      0.404704
@<TRIPOS>BOND
     1    1    2 1   
     2    1    4 1   
     3    1    5 1   
     4    1    6 1   
     5    2    3 2   
     6    2    7 1   
     7    7    8 1   
     8    7   15 1   
     9    8    9 1   
    10    8   11 1   
    11    8   16 1   
    12    9   10 2   
    13    9   19 1   
    14   11   12 1   
    15   11   17 1   
    16   11   18 1   
    17   12   13 1   
    18   12   14 1   
    19   19   20 1   
    20   19   24 1   
    21   20   21 1   
    22   20   23 1   
    23   20   25 1   
    24   21   22 2   
    25   21   29 1   
    26   23   26 1   
    27   23   27 1   
    28   23   28 1   
    29   29   30 1   
    30   29   37 1   
    31   30   31 1   
    32   30   33 1   
    33   30   38 1   
    34   31   32 2   
    35   31   41 1   
    36   33   34 1   
    37   33   39 1   
    38   33   40 1   
    39   34   35 1   
    40   34   36 1   
    41   41   42 1   
    42   41   45 1   
    43   42   43 1   
    44   42   46 1   
    45   42   47 1   
    46   43   44 2   
    47   43   48 1   
    48   48   49 1   
    49   48   56 1   
    50   49   50 1   
    51   49   52 1   
    52   49   57 1   
    53   50   51 2   
    54   50   62 1   
    55   52   53 1   
    56   52   58 1   
    57   52   59 1   
    58   53   54 1   
    59   53   55 2   
    60   54   60 1   
    61   54   61 1   
    62   62   63 1   
    63   62   66 1   
    64   63   64 1   
    65   63   67 1   
    66   63   68 1   
    67   64   65 2   
    68   64   69 1   
    69   69   70 1   
    70   69   76 1   
    71   70   71 1   
    72   70   73 1   
    73   70   77 1   
    74   71   72 2   
    75   71   83 1   
    76   73   74 1   
    77   73   75 1   
    78   73   78 1   
    79   74   80 1   
    80   74   81 1   
    81   74   82 1   
    82   75   79 1   
    83   83   84 1   
    84   83   91 1   
    85   84   85 1   
    86   84   87 1   
    87   84   92 1   
    88   85   86 2   
    89   85  102 1   
    90   87   88 1   
    91   87   89 1   
    92   87   93 1   
    93   88   90 1   
    94   88   94 1   
    95   88   95 1   
    96   89   96 1   
    97   89   97 1   
    98   89   98 1   
    99   90   99 1   
   100   90  100 1   
   101   90  101 1   
   102  102  103 1   
   103  102  110 1   
   104  103  104 1   
   105  103  106 1   
   106  103  111 1   
   107  104  105 2   
   108  104  114 1   
   109  106  107 1   
   110  106  112 1   
   111  106  113 1   
   112  107  108 1   
   113  107  109 1   
   114  114  115 1   
   115  114  125 1   
   116  115  116 1   
   117  115  118 1   
   118  115  126 1   
   119  116  117 2   
   120  116  134 1   
   121  118  119 1   
   122  118  127 1   
   123  118  128 1   
   124  119  120 ar  
   125  119  121 ar  
   126  120  122 ar  
   127  120  129 1   
   128  121  123 ar  
   129  121  130 1   
   130  122  124 ar  
   131  122  131 1   
   132  123  124 ar  
   133  123  132 1   
   134  124  133 1   
   135  134  135 1   
   136  134  140 1   
   137  135  136 1   
   138  135  138 1   
   139  135  141 1   
   140  136  137 2   
   141  136  148 1   
   142  138  139 1   
   143  138  142 1   
   144  138  143 1   
   145  139  140 1   
   146  139  144 1   
   147  139  145 1   
   148  140  146 1   
   149  140  147 1   
   150  148  149 1   
   151  148  157 1   
   152  149  150 1   
   153  149  152 1   
   154  149  158 1   
   155  150  151 2   
   156  150  163 1   
   157  152  153 1   
   158  152  159 1   
   159  152  160 1   
   160  153  154 1   
   161  153  161 1   
   162  153  162 1   
   163  154  155 1   
   164  154  156 1   
   165  163  164 1   
   166  163  168 1   
   167  164  165 1   
   168  164  166 1   
   169  164  167 1   
   170  170  171 1   
   171  170  172 1   
   172  173  174 1   
   173  173  175 1   
   174  176  177 1   
   175  176  178 1   
@<TRIPOS>SUBSTRUCTURE
     1 MOL         1 TEMP              0 ****  ****    0 ROOT
