@<TRIPOS>MOLECULE
MOL
  192   187     1     0     0
SMALL
resp


@<TRIPOS>ATOM
      1 C1          5.3750    4.6290   -2.5350 c3        1 MOL     -0.408834
      2 C2          5.7720    3.3750   -1.7000 c         1 MOL      0.746025
      3 O1          4.8720    2.8710   -0.9590 o         1 MOL     -0.623916
      4 H1          5.1270    4.3240   -3.5520 hc        1 MOL      0.107360
      5 H2          4.5100    5.1100   -2.0800 hc        1 MOL      0.107360
      6 H3          6.2110    5.3290   -2.5600 hc        1 MOL      0.107360
      7 N1          6.9190    2.7140   -1.8970 n         1 MOL     -0.678802
      8 C3          7.3420    1.4570   -1.5030 c3        1 MOL      0.287186
      9 C4          6.1600    0.4280   -1.5400 c         1 MOL      0.230134
     10 O2          5.5480    0.1140   -0.5510 o         1 MOL     -0.350770
     11 C5          8.1790    1.3360   -0.2300 c3        1 MOL     -0.241116
     12 C6          8.0120    2.5880    0.6810 c         1 MOL      0.725273
     13 O3          6.9580    2.8490    1.3640 o         1 MOL     -0.723357
     14 O4          9.0280    3.3660    0.7920 o         1 MOL     -0.723357
     15 H4          7.6330    3.2080   -2.4170 hn        1 MOL      0.332732
     16 H5          7.9350    1.1050   -2.3430 h1        1 MOL      0.025460
     17 H6          9.2340    1.2350   -0.4830 hc        1 MOL      0.067246
     18 H7          7.9530    0.4220    0.3350 hc        1 MOL      0.067246
     19 N2          5.8450   -0.0800   -2.7810 n         1 MOL     -0.433671
     20 C7          4.7780   -1.0070   -3.1520 c3        1 MOL      0.018476
     21 C8          4.9460   -2.4650   -2.7550 c         1 MOL      0.451575
     22 O5          4.9370   -3.3460   -3.6350 o         1 MOL     -0.562134
     23 C9          3.3430   -0.4760   -2.8550 c3        1 MOL      0.395771
     24 C10         2.2480   -1.3520   -3.4340 c3        1 MOL      0.033366
     25 C11         3.0840    0.9110   -3.4160 c3        1 MOL     -0.156202
     26 C12         2.2320   -1.5710   -4.9790 c3        1 MOL     -0.321969
     27 H8          6.4170    0.2420   -3.5500 hn        1 MOL      0.284339
     28 H9          4.8440   -1.0560   -4.2310 h1        1 MOL      0.035773
     29 H10         3.2040   -0.4600   -1.7830 hc        1 MOL     -0.175395
     30 H11         1.2950   -0.9210   -3.1300 hc        1 MOL      0.044309
     31 H12         2.3040   -2.3500   -3.0040 hc        1 MOL      0.044309
     32 H13         3.2460    0.8920   -4.4970 hc        1 MOL     -0.002103
     33 H14         2.0260    1.1500   -3.3200 hc        1 MOL     -0.002103
     34 H15         3.6900    1.6380   -2.8910 hc        1 MOL     -0.002103
     35 H16         1.8660   -0.6450   -5.4250 hc        1 MOL      0.060765
     36 H17         3.1600   -1.9830   -5.3730 hc        1 MOL      0.060765
     37 H18         1.4320   -2.3050   -5.1030 hc        1 MOL      0.060765
     38 N3          5.2560   -2.7370   -1.5070 n         1 MOL     -0.146244
     39 C13         5.8410   -4.0280   -0.9970 c3        1 MOL     -0.090929
     40 C14         4.7990   -5.1940   -0.7980 c         1 MOL      0.571698
     41 O6          5.0710   -6.3300   -1.2370 o         1 MOL     -0.576298
     42 C15         6.6650   -3.8590    0.3070 c3        1 MOL     -0.213616
     43 C16         7.8010   -2.8590    0.2670 c         1 MOL      0.812252
     44 O7          7.7520   -1.9540    1.0960 o         1 MOL     -0.744481
     45 O8          8.7700   -3.0630   -0.5560 o         1 MOL     -0.744481
     46 H19         5.1660   -1.9880   -0.8480 hn        1 MOL      0.180968
     47 H20         6.5390   -4.3550   -1.7680 h1        1 MOL      0.086747
     48 H21         7.0240   -4.8270    0.6570 hc        1 MOL      0.062657
     49 H22         5.9260   -3.5200    1.0260 hc        1 MOL      0.062657
     50 N4          3.5680   -4.9690   -0.2700 n         1 MOL     -0.593201
     51 C17         3.0510   -3.8210    0.4480 c3        1 MOL      0.369871
     52 C18         1.7880   -4.1980    1.2620 c         1 MOL      0.348076
     53 O9          1.1710   -5.2410    1.0750 o         1 MOL     -0.566687
     54 H23         2.9030   -5.7220   -0.3280 hn        1 MOL      0.306620
     55 H24         2.8550   -2.9950   -0.2410 h1        1 MOL     -0.013961
     56 H25         3.8500   -3.3250    1.0090 h1        1 MOL     -0.013961
     57 N5          1.3670   -3.4230    2.2680 n         1 MOL     -0.248816
     58 C19         1.9420   -2.1530    2.7080 c3        1 MOL     -0.099739
     59 C20         2.2030   -1.0580    1.6720 c         1 MOL      0.271288
     60 O10         3.3310   -0.8320    1.3680 o         1 MOL     -0.438762
     61 C21         3.1590   -2.4550    3.6120 c3        1 MOL     -0.214521
     62 C22         3.7110   -1.2930    4.3110 c         1 MOL      0.792015
     63 O11         4.9710   -1.3030    4.2810 o         1 MOL     -0.697765
     64 O12         2.9880   -0.6420    5.1050 o         1 MOL     -0.697765
     65 H26         0.6350   -3.8240    2.8380 hn        1 MOL      0.264624
     66 H27         1.0570   -1.8590    3.2740 h1        1 MOL      0.115036
     67 H28         3.9190   -2.9920    3.0330 hc        1 MOL      0.044349
     68 H29         2.7810   -3.1400    4.3730 hc        1 MOL      0.044349
     69 N6          1.1850   -0.4690    1.0520 n         1 MOL     -0.039917
     70 C23        -0.2620   -0.8180    0.9020 c3        1 MOL     -0.005588
     71 C24        -0.5510   -2.1270    0.1620 c         1 MOL      0.292430
     72 O13         0.1760   -2.4770   -0.7610 o         1 MOL     -0.467554
     73 H30         1.4480    0.4390    0.6910 hn        1 MOL      0.114627
     74 H31        -0.8420   -0.0020    0.4730 h1        1 MOL     -0.007509
     75 H32        -0.6600   -1.0390    1.8940 h1        1 MOL     -0.007509
     76 N7         -1.5030   -2.9000    0.6290 n         1 MOL     -0.316107
     77 C25        -1.8910   -4.1450    0.0200 c3        1 MOL     -0.269933
     78 C26        -2.6360   -3.8930   -1.3250 c         1 MOL      0.772778
     79 O14        -2.5920   -4.8210   -2.1470 o         1 MOL     -0.569714
     80 C27        -2.7990   -5.0070    0.9540 c3        1 MOL      0.252559
     81 C28        -4.2830   -4.4710    1.1180 c3        1 MOL     -0.152664
     82 C29        -5.0090   -5.4410    2.0610 c         1 MOL      0.622390
     83 N8         -5.2860   -5.0190    3.2490 n         1 MOL     -0.779809
     84 O15        -5.2810   -6.5310    1.6970 o         1 MOL     -0.549328
     85 H33        -1.8790   -2.6770    1.5380 hn        1 MOL      0.314417
     86 H34        -0.9870   -4.7320   -0.1620 h1        1 MOL      0.182178
     87 H35        -2.4350   -5.0600    1.9770 hc        1 MOL     -0.013357
     88 H36        -2.8000   -6.0080    0.5150 hc        1 MOL     -0.013357
     89 H37        -4.7680   -4.4860    0.1420 hc        1 MOL     -0.028031
     90 H38        -4.2810   -3.4320    1.4720 hc        1 MOL     -0.028031
     91 H39        -4.9710   -4.0890    3.4770 hn        1 MOL      0.362919
     92 H40        -5.9100   -5.5960    3.8070 hn        1 MOL      0.362919
     93 N9         -3.3330   -2.8000   -1.5400 n         1 MOL     -0.490782
     94 C30        -3.9190   -2.4640   -2.8870 c3        1 MOL     -0.157362
     95 C31        -5.3210   -1.8280   -2.8790 c         1 MOL      0.754563
     96 O16        -5.9740   -1.9040   -3.8810 o         1 MOL     -0.553024
     97 C32        -3.0040   -1.4950   -3.6580 c3        1 MOL     -0.012110
     98 C33        -1.8620   -2.3900   -4.2630 c3        1 MOL     -0.164838
     99 C34        -2.2550   -0.4030   -2.8540 c3        1 MOL     -0.164838
    100 H41        -3.1310   -2.0030   -0.9490 hn        1 MOL      0.258845
    101 H42        -4.1410   -3.3770   -3.4400 h1        1 MOL      0.135568
    102 H43        -3.5330   -1.1430   -4.5470 hc        1 MOL      0.042631
    103 H44        -1.2270   -2.8130   -3.4860 hc        1 MOL      0.056557
    104 H45        -2.3040   -3.2310   -4.8110 hc        1 MOL      0.056557
    105 H46        -1.2780   -1.8650   -5.0290 hc        1 MOL      0.056557
    106 H47        -1.4800    0.0580   -3.4550 hc        1 MOL      0.056557
    107 H48        -2.8980    0.3520   -2.3960 hc        1 MOL      0.056557
    108 H49        -1.7240   -0.8370   -2.0030 hc        1 MOL      0.056557
    109 N10        -5.6850   -1.2520   -1.7300 n         1 MOL     -0.488797
    110 C35        -6.9320   -0.5060   -1.6200 c3        1 MOL     -0.019623
    111 C36        -6.8710    0.9930   -1.2250 c         1 MOL      0.569350
    112 O17        -7.5030    1.8610   -1.8320 o         1 MOL     -0.523583
    113 C37        -7.8960   -1.2910   -0.6810 c3        1 MOL     -0.071034
    114 C38        -8.0920   -2.8090   -0.9660 c         1 MOL      0.526138
    115 N11        -7.6300   -3.7140   -0.2000 n         1 MOL     -0.629657
    116 O18        -8.6930   -3.1030   -2.0080 o         1 MOL     -0.530738
    117 H50        -4.9950   -1.3240   -0.9930 hn        1 MOL      0.244284
    118 H51        -7.4130   -0.6870   -2.5840 h1        1 MOL      0.099375
    119 H52        -8.9250   -0.9420   -0.6320 hc        1 MOL      0.032231
    120 H53        -7.5080   -1.3110    0.3360 hc        1 MOL      0.032231
    121 H54        -7.3550   -3.3900    0.7170 hn        1 MOL      0.329316
    122 H55        -7.8710   -4.6790   -0.3880 hn        1 MOL      0.329316
    123 N12        -5.9560    1.3320   -0.2500 n         1 MOL     -0.443952
    124 C39        -5.8880    2.6630    0.3200 c3        1 MOL      0.153898
    125 C40        -4.4230    3.1070    0.4200 c         1 MOL      0.414100
    126 O19        -3.5010    2.5030   -0.1560 o         1 MOL     -0.510559
    127 C41        -6.6220    2.6510    1.6260 c3        1 MOL     -0.096077
    128 C42        -8.0180    2.0100    1.5990 ca        1 MOL     -0.034941
    129 C43        -9.1450    2.5820    1.0320 ca        1 MOL     -0.107956
    130 C44        -8.0600    0.7370    2.0950 ca        1 MOL     -0.107956
    131 C45       -10.4000    1.8970    1.0380 ca        1 MOL     -0.277586
    132 C46        -9.2970    0.0070    2.1480 ca        1 MOL     -0.277586
    133 C47       -10.4610    0.6120    1.6330 ca        1 MOL      0.367955
    134 O20       -11.7060    0.0240    1.6800 oh        1 MOL     -0.542504
    135 H56        -5.3340    0.6110    0.0810 hn        1 MOL      0.326928
    136 H57        -6.4020    3.3550   -0.3410 h1        1 MOL      0.069626
    137 H58        -6.8440    3.6710    1.9340 hc        1 MOL      0.039884
    138 H59        -6.0330    2.2640    2.4650 hc        1 MOL      0.039884
    139 H60        -9.0860    3.6150    0.7330 ha        1 MOL      0.124965
    140 H61        -7.2290    0.2510    2.5940 ha        1 MOL      0.124965
    141 H62       -11.3150    2.4290    0.8110 ha        1 MOL      0.138897
    142 H63        -9.3080   -0.9330    2.6810 ha        1 MOL      0.138897
    143 H64       -12.3550    0.5060    1.1710 ho        1 MOL      0.387238
    144 N13        -4.1420    4.0920    1.2870 n         1 MOL     -0.475800
    145 C48        -2.8600    4.6460    1.7920 c3        1 MOL     -0.116975
    146 C49        -1.7760    5.0550    0.7090 c         1 MOL      0.450711
    147 O21        -1.0780    6.0390    0.8950 o         1 MOL     -0.507231
    148 C50        -2.2050    3.6760    2.8940 c3        1 MOL      0.455543
    149 C51        -1.7230    2.2490    2.4670 c3        1 MOL     -0.607921
    150 C52        -1.0880    1.6600    3.6890 c         1 MOL      0.809115
    151 O22        -1.7260    0.7850    4.4050 o         1 MOL     -0.734815
    152 O23        -0.0020    2.0470    4.0950 o         1 MOL     -0.734815
    153 H65        -4.9290    4.5440    1.7340 hn        1 MOL      0.302066
    154 H66        -3.1080    5.5020    2.4140 h1        1 MOL      0.070334
    155 H67        -2.8680    3.6890    3.7650 hc        1 MOL     -0.040230
    156 H68        -1.3690    4.2110    3.3420 hc        1 MOL     -0.040230
    157 H69        -1.0680    2.2780    1.6010 hc        1 MOL      0.099729
    158 H70        -2.6020    1.6480    2.2520 hc        1 MOL      0.099729
    159 N14        -1.6900    4.4020   -0.4940 n         1 MOL     -0.423921
    160 C53        -0.6900    4.8970   -1.4920 c3        1 MOL     -0.085875
    161 C54        -1.3270    5.8560   -2.5240 c         1 MOL      0.562896
    162 O24        -0.6830    6.6830   -3.1140 o         1 MOL     -0.550551
    163 C55         0.1270    3.8410   -2.1930 c3        1 MOL     -0.325653
    164 C56         0.6500    2.7590   -1.2010 c3        1 MOL      0.739290
    165 C57         1.7580    3.0400   -0.1920 c         1 MOL      0.508901
    166 O25         1.8640    4.2380    0.2550 o         1 MOL     -0.626585
    167 O26         2.2870    2.0110    0.4040 o         1 MOL     -0.626585
    168 H71        -2.1190    3.4960   -0.5050 hn        1 MOL      0.354129
    169 H72         0.0810    5.5120   -1.0200 h1        1 MOL      0.162461
    170 H73         0.9990    4.3300   -2.6150 hc        1 MOL      0.033298
    171 H74        -0.5180    3.4270   -2.9690 hc        1 MOL      0.033298
    172 H75         1.0290    1.9140   -1.7840 hc        1 MOL     -0.146046
    173 H76        -0.1970    2.2360   -0.7620 hc        1 MOL     -0.146046
    174 N15        -2.6730    5.8870   -2.6380 n         1 MOL     -0.255856
    175 C58        -3.4510    6.7820   -3.4730 c3        1 MOL     -0.224798
    176 H77        -3.4850    6.3910   -4.4890 h1        1 MOL      0.089635
    177 H78        -4.4640    6.8580   -3.0790 h1        1 MOL      0.089635
    178 H79        -2.9880    7.7690   -3.4790 h1        1 MOL      0.089635
    179 H80        -3.2550    5.2180   -2.1680 hn        1 MOL      0.209764
    180 Ca1         4.6130    1.7260    1.4120 Ca        1 MOL      1.699774
    181 O27         2.7380    1.4410    3.4100 oh        1 MOL     -0.845425
    182 H81         2.8170    0.8610    4.1690 ho        1 MOL      0.403527
    183 H82         1.7890    1.5120    3.2730 ho        1 MOL      0.403527
    184 O28         4.3970    4.3840    1.6940 oh        1 MOL     -0.845425
    185 H83         3.6140    4.5430    1.1630 ho        1 MOL      0.403527
    186 H84         4.2850    4.9620    2.4450 ho        1 MOL      0.403527
    187 O29         5.3800    2.5020    3.9260 oh        1 MOL     -0.845425
    188 H85         4.9860    2.6840    4.7790 ho        1 MOL      0.403527
    189 H86         6.1810    3.0180    3.9160 ho        1 MOL      0.403527
    190 O30         6.2660   -0.0470    2.4050 oh        1 MOL     -0.845425
    191 H87         5.8760   -0.5090    3.1490 ho        1 MOL      0.403527
    192 H88         6.5520   -0.7480    1.8120 ho        1 MOL      0.403527
@<TRIPOS>BOND
     1    1    2 1   
     2    1    4 1   
     3    1    5 1   
     4    1    6 1   
     5    2    3 2   
     6    2    7 1   
     7    7    8 1   
     8    7   15 1   
     9    8    9 1   
    10    8   11 1   
    11    8   16 1   
    12    9   10 2   
    13    9   19 1   
    14   11   12 1   
    15   11   17 1   
    16   11   18 1   
    17   12   13 1   
    18   12   14 1   
    19   19   20 1   
    20   19   27 1   
    21   20   21 1   
    22   20   23 1   
    23   20   28 1   
    24   21   22 2   
    25   21   38 1   
    26   23   24 1   
    27   23   25 1   
    28   23   29 1   
    29   24   26 1   
    30   24   30 1   
    31   24   31 1   
    32   25   32 1   
    33   25   33 1   
    34   25   34 1   
    35   26   35 1   
    36   26   36 1   
    37   26   37 1   
    38   38   39 1   
    39   38   46 1   
    40   39   40 1   
    41   39   42 1   
    42   39   47 1   
    43   40   41 2   
    44   40   50 1   
    45   42   43 1   
    46   42   48 1   
    47   42   49 1   
    48   43   44 1   
    49   43   45 1   
    50   50   51 1   
    51   50   54 1   
    52   51   52 1   
    53   51   55 1   
    54   51   56 1   
    55   52   53 2   
    56   52   57 1   
    57   57   58 1   
    58   57   65 1   
    59   58   59 1   
    60   58   61 1   
    61   58   66 1   
    62   59   60 2   
    63   59   69 1   
    64   61   62 1   
    65   61   67 1   
    66   61   68 1   
    67   62   63 1   
    68   62   64 1   
    69   69   70 1   
    70   69   73 1   
    71   70   71 1   
    72   70   74 1   
    73   70   75 1   
    74   71   72 2   
    75   71   76 1   
    76   76   77 1   
    77   76   85 1   
    78   77   78 1   
    79   77   80 1   
    80   77   86 1   
    81   78   79 2   
    82   78   93 1   
    83   80   81 1   
    84   80   87 1   
    85   80   88 1   
    86   81   82 1   
    87   81   89 1   
    88   81   90 1   
    89   82   83 1   
    90   82   84 2   
    91   83   91 1   
    92   83   92 1   
    93   93   94 1   
    94   93  100 1   
    95   94   95 1   
    96   94   97 1   
    97   94  101 1   
    98   95   96 2   
    99   95  109 1   
   100   97   98 1   
   101   97   99 1   
   102   97  102 1   
   103   98  103 1   
   104   98  104 1   
   105   98  105 1   
   106   99  106 1   
   107   99  107 1   
   108   99  108 1   
   109  109  110 1   
   110  109  117 1   
   111  110  111 1   
   112  110  113 1   
   113  110  118 1   
   114  111  112 2   
   115  111  123 1   
   116  113  114 1   
   117  113  119 1   
   118  113  120 1   
   119  114  115 1   
   120  114  116 2   
   121  115  121 1   
   122  115  122 1   
   123  123  124 1   
   124  123  135 1   
   125  124  125 1   
   126  124  127 1   
   127  124  136 1   
   128  125  126 2   
   129  125  144 1   
   130  127  128 1   
   131  127  137 1   
   132  127  138 1   
   133  128  129 ar  
   134  128  130 ar  
   135  129  131 ar  
   136  129  139 1   
   137  130  132 ar  
   138  130  140 1   
   139  131  133 ar  
   140  131  141 1   
   141  132  133 ar  
   142  132  142 1   
   143  133  134 1   
   144  134  143 1   
   145  144  145 1   
   146  144  153 1   
   147  145  146 1   
   148  145  148 1   
   149  145  154 1   
   150  146  147 2   
   151  146  159 1   
   152  148  149 1   
   153  148  155 1   
   154  148  156 1   
   155  149  150 1   
   156  149  157 1   
   157  149  158 1   
   158  150  151 1   
   159  150  152 1   
   160  159  160 1   
   161  159  168 1   
   162  160  161 1   
   163  160  163 1   
   164  160  169 1   
   165  161  162 2   
   166  161  174 1   
   167  163  164 1   
   168  163  170 1   
   169  163  171 1   
   170  164  165 1   
   171  164  172 1   
   172  164  173 1   
   173  165  166 1   
   174  165  167 1   
   175  174  175 1   
   176  174  179 1   
   177  175  176 1   
   178  175  177 1   
   179  175  178 1   
   180  181  182 1   
   181  181  183 1   
   182  184  185 1   
   183  184  186 1   
   184  187  188 1   
   185  187  189 1   
   186  190  191 1   
   187  190  192 1   
@<TRIPOS>SUBSTRUCTURE
     1 MOL         1 TEMP              0 ****  ****    0 ROOT
