@<TRIPOS>MOLECULE
MOL
  181   177     1     0     0
SMALL
resp


@<TRIPOS>ATOM
      1 C1          9.3730    7.1980   -2.4730 c3        1 MOL     -0.258953
      2 C2          8.2270    6.4410   -1.8460 c         1 MOL      0.558689
      3 O1          7.1670    7.0450   -1.5400 o         1 MOL     -0.562430
      4 H1         10.1410    6.4930   -2.7930 hc        1 MOL      0.066648
      5 H2          9.0110    7.7570   -3.3360 hc        1 MOL      0.066648
      6 H3          9.7960    7.8880   -1.7430 hc        1 MOL      0.066648
      7 N1          8.3560    5.1190   -1.5750 n         1 MOL     -0.347818
      8 C3          9.5410    4.2480   -1.8390 c3        1 MOL      0.069623
      9 C4         10.2370    3.7780   -0.5470 c         1 MOL      0.403338
     10 O2         11.1960    3.0740   -0.6220 o         1 MOL     -0.510784
     11 C5          9.1460    3.0390   -2.6820 c3        1 MOL     -0.250648
     12 C6          7.9830    2.2860   -2.0000 c         1 MOL      0.650143
     13 O3          8.0210    2.0100   -0.7690 o         1 MOL     -0.685262
     14 O4          6.9480    2.1220   -2.6990 o         1 MOL     -0.685262
     15 H4          7.5550    4.5800   -1.2600 hn        1 MOL      0.268847
     16 H5         10.2010    4.8560   -2.4600 h1        1 MOL      0.087385
     17 H6          9.9650    2.3530   -2.8980 hc        1 MOL      0.071873
     18 H7          8.8140    3.4860   -3.6280 hc        1 MOL      0.071873
     19 N2          9.7990    4.1860    0.6900 n         1 MOL     -0.459357
     20 C7         10.4410    3.8910    1.9150 c3        1 MOL      0.469370
     21 C8          9.8160    2.6940    2.8020 c         1 MOL      0.187665
     22 O5          9.8770    2.6460    4.0310 o         1 MOL     -0.516215
     23 C9         10.5670    5.1320    2.7320 c3        1 MOL     -0.284487
     24 H8          9.0550    4.8650    0.7550 hn        1 MOL      0.243524
     25 H9         11.4620    3.5360    1.7170 h1        1 MOL     -0.024981
     26 H10         9.5920    5.4740    3.0840 hc        1 MOL      0.063871
     27 H11        11.2050    5.0190    3.6010 hc        1 MOL      0.063871
     28 H12        11.0070    5.9220    2.1130 hc        1 MOL      0.063871
     29 N3          9.0280    1.7940    2.1860 n         1 MOL      0.113568
     30 C10         8.4010    0.5960    2.8610 c3        1 MOL     -0.203683
     31 C11         8.3200   -0.5520    1.8260 c         1 MOL      0.184942
     32 O6          8.4180   -0.4320    0.6410 o         1 MOL     -0.355368
     33 C12         7.0980    0.8540    3.4810 c3        1 MOL      0.160572
     34 C13         6.0910    1.5230    2.5640 c         1 MOL      0.519151
     35 O7          5.5080    2.5100    2.9920 o         1 MOL     -0.647847
     36 O8          5.9910    1.1360    1.3420 o         1 MOL     -0.647847
     37 H13         8.9450    1.8370    1.1870 hn        1 MOL      0.076142
     38 H14         9.0840    0.2500    3.6370 h1        1 MOL      0.061330
     39 H15         7.1570    1.4950    4.3520 hc        1 MOL     -0.014243
     40 H16         6.6320   -0.0940    3.7810 hc        1 MOL     -0.014243
     41 N4          8.2180   -1.7590    2.3570 n         1 MOL     -0.059806
     42 C14         8.0240   -2.9560    1.5590 c3        1 MOL     -0.483210
     43 C15         6.9410   -2.9490    0.3770 c         1 MOL      0.920569
     44 O9          6.1960   -1.9900    0.2260 o         1 MOL     -0.606255
     45 H17         8.1960   -1.8530    3.3590 hn        1 MOL      0.240184
     46 H18         7.8090   -3.7590    2.2690 h1        1 MOL      0.140784
     47 H19         8.9350   -3.1840    1.0000 h1        1 MOL      0.140784
     48 N5          6.8330   -4.0030   -0.4390 n         1 MOL     -0.761370
     49 C16         5.7220   -4.4510   -1.3010 c3        1 MOL      0.082674
     50 C17         4.5000   -4.7910   -0.4840 c         1 MOL      0.716677
     51 O10         4.5370   -5.2520    0.6470 o         1 MOL     -0.519324
     52 C18         6.1370   -5.6430   -2.1870 c3        1 MOL     -0.273669
     53 C19         7.4210   -5.4840   -2.9470 c         1 MOL      0.705430
     54 N6          8.4140   -6.3150   -2.7000 n         1 MOL     -0.811767
     55 O11         7.4640   -4.5320   -3.7260 o         1 MOL     -0.582947
     56 H20         7.3680   -4.8060   -0.1400 hn        1 MOL      0.330588
     57 H21         5.4880   -3.6480   -1.9940 h1        1 MOL      0.130630
     58 H22         5.3760   -5.6670   -2.9700 hc        1 MOL      0.064355
     59 H23         6.1270   -6.4940   -1.4990 hc        1 MOL      0.064355
     60 H24         8.3650   -7.0920   -2.0600 hn        1 MOL      0.375693
     61 H25         9.2610   -6.1550   -3.2210 hn        1 MOL      0.375693
     62 N7          3.3480   -4.4550   -1.1410 n         1 MOL     -0.741571
     63 C20         2.0270   -4.6140   -0.6520 c3        1 MOL      0.182207
     64 C21         1.7380   -3.6660    0.5140 c         1 MOL      0.600357
     65 O12         2.6300   -2.8910    0.9590 o         1 MOL     -0.548725
     66 H26         3.3210   -4.1860   -2.1160 hn        1 MOL      0.349438
     67 H27         1.8900   -5.6550   -0.3700 h1        1 MOL      0.065022
     68 H28         1.3660   -4.3420   -1.4820 h1        1 MOL      0.065022
     69 N8          0.4980   -3.6810    1.0710 n         1 MOL     -0.623641
     70 C22        -0.5970   -4.6660    0.7390 c3        1 MOL      0.044176
     71 C23        -1.9690   -4.0690    0.4960 c         1 MOL      0.619865
     72 O13        -2.7610   -4.7880   -0.0910 o         1 MOL     -0.588239
     73 C24        -0.7530   -5.7570    1.7860 c3        1 MOL      0.448460
     74 C25         0.3710   -6.7420    1.8140 c3        1 MOL     -0.540798
     75 O14        -0.8430   -5.2370    3.1160 oh        1 MOL     -0.619184
     76 H29         0.4870   -3.1030    1.8890 hn        1 MOL      0.385204
     77 H30        -0.3110   -5.1230   -0.2100 h1        1 MOL     -0.000016
     78 H31        -1.6710   -6.3430    1.6900 h1        1 MOL     -0.014835
     79 H32        -1.6710   -5.5710    3.4660 ho        1 MOL      0.393441
     80 H33         0.1480   -7.5630    2.4990 hc        1 MOL      0.131077
     81 H34         0.6530   -7.1510    0.8390 hc        1 MOL      0.131077
     82 H35         1.3000   -6.3390    2.2110 hc        1 MOL      0.131077
     83 N9         -2.2620   -2.8220    0.8750 n         1 MOL     -0.504079
     84 C26        -3.6040   -2.2020    0.8110 c3        1 MOL      0.281817
     85 C27        -3.5710   -0.8350    0.0710 c         1 MOL      0.450146
     86 O15        -2.5740   -0.1180    0.1120 o         1 MOL     -0.537667
     87 C28        -4.0410   -1.9340    2.2730 c3        1 MOL      0.117453
     88 C29        -3.7650   -2.9150    3.3990 c3        1 MOL     -0.450980
     89 C30        -5.5200   -1.6420    2.4020 c3        1 MOL     -0.054324
     90 C31        -4.4800   -4.2780    3.2370 c3        1 MOL      0.088889
     91 H36        -1.4970   -2.2850    1.2590 hn        1 MOL      0.256168
     92 H37        -4.3350   -2.8980    0.3970 h1        1 MOL      0.047602
     93 H38        -3.4690   -1.0340    2.4800 hc        1 MOL      0.059249
     94 H39        -4.1810   -2.4540    4.2950 hc        1 MOL      0.117105
     95 H40        -2.6900   -3.0510    3.4100 hc        1 MOL      0.117105
     96 H41        -5.7780   -1.2290    3.3810 hc        1 MOL      0.021271
     97 H42        -5.8040   -0.8790    1.6770 hc        1 MOL      0.021271
     98 H43        -6.2180   -2.4450    2.1550 hc        1 MOL      0.021271
     99 H44        -4.1840   -5.0360    3.9580 hc        1 MOL     -0.019018
    100 H45        -5.5560   -4.2270    3.4130 hc        1 MOL     -0.019018
    101 H46        -4.3170   -4.6850    2.2410 hc        1 MOL     -0.019018
    102 N10        -4.5620   -0.5040   -0.7410 n         1 MOL     -0.387471
    103 C32        -5.7730   -1.3680   -1.1010 c3        1 MOL     -0.039172
    104 C33        -7.0410   -0.5120   -1.4550 c         1 MOL      0.466479
    105 O16        -6.9720    0.6870   -1.7430 o         1 MOL     -0.446974
    106 C34        -5.3940   -2.2940   -2.3320 c3        1 MOL     -0.106531
    107 C35        -4.7760   -1.6040   -3.5140 c         1 MOL      0.681170
    108 O17        -5.4720   -0.8270   -4.2120 o         1 MOL     -0.710995
    109 O18        -3.5750   -1.7620   -3.7640 o         1 MOL     -0.710995
    110 H47        -4.4130    0.3500   -1.2630 hn        1 MOL      0.357893
    111 H48        -6.1380   -1.9400   -0.2570 h1        1 MOL      0.055295
    112 H49        -6.3360   -2.7120   -2.6900 hc        1 MOL     -0.011209
    113 H50        -4.7750   -3.1110   -1.9590 hc        1 MOL     -0.011209
    114 N11        -8.2200   -1.1590   -1.2190 n         1 MOL     -0.554984
    115 C36        -9.5070   -0.4680   -1.1670 c3        1 MOL      0.471153
    116 C37        -9.7570   -0.1140    0.3730 c         1 MOL      0.204443
    117 O19        -9.6550   -1.1050    1.1280 o         1 MOL     -0.526819
    118 C38       -10.6780   -1.3270   -1.8020 c3        1 MOL     -0.272389
    119 C39       -11.9930   -0.6990   -1.4370 ca        1 MOL      0.205772
    120 C40       -12.7390   -0.9680   -0.2800 ca        1 MOL     -0.249216
    121 C41       -12.4400    0.3250   -2.2580 ca        1 MOL     -0.249216
    122 C42       -13.8960   -0.3220    0.1040 ca        1 MOL     -0.064354
    123 C43       -13.6330    1.0100   -1.8370 ca        1 MOL     -0.064354
    124 C44       -14.3700    0.7640   -0.6690 ca        1 MOL     -0.177803
    125 H51        -8.1670   -2.0610   -0.7810 hn        1 MOL      0.306822
    126 H52        -9.5080    0.5190   -1.6300 h1        1 MOL     -0.006062
    127 H53       -10.6630   -2.3460   -1.4370 hc        1 MOL      0.082210
    128 H54       -10.5110   -1.3490   -2.8790 hc        1 MOL      0.082210
    129 H55       -12.3420   -1.7330    0.3720 ha        1 MOL      0.148874
    130 H56       -11.9220    0.6040   -3.1630 ha        1 MOL      0.148874
    131 H57       -14.5200   -0.6400    0.9240 ha        1 MOL      0.091934
    132 H58       -13.9790    1.8440   -2.4350 ha        1 MOL      0.091934
    133 H59       -15.2490    1.3050   -0.3540 ha        1 MOL      0.122775
    134 N12       -10.2500    1.0780    0.8050 n         1 MOL     -0.035205
    135 C45       -10.4660    2.2780    0.0140 c3        1 MOL      0.326467
    136 C46        -9.1380    2.8360   -0.4010 c         1 MOL      0.334708
    137 O20        -9.0790    3.3250   -1.5470 o         1 MOL     -0.547605
    138 C47       -11.2520    3.2870    0.8970 c3        1 MOL     -0.101310
    139 C48       -11.8500    2.3640    1.9060 c3        1 MOL     -0.083094
    140 C49       -11.0040    1.1720    2.0170 c3        1 MOL     -0.082827
    141 H60       -11.0120    1.9960   -0.8850 h1        1 MOL     -0.048367
    142 H61       -10.5560    3.9980    1.3450 hc        1 MOL      0.040140
    143 H62       -11.9590    3.7770    0.2390 hc        1 MOL      0.040140
    144 H63       -11.9780    2.8690    2.8640 hc        1 MOL      0.036048
    145 H64       -12.8180    1.9880    1.5710 hc        1 MOL      0.036048
    146 H65       -10.3600    1.2400    2.8920 h1        1 MOL      0.062549
    147 H66       -11.5990    0.2890    2.2450 h1        1 MOL      0.062549
    148 N13        -8.1450    2.9460    0.4720 n         1 MOL     -0.401342
    149 C50        -6.9180    3.7710    0.2450 c3        1 MOL      0.255031
    150 C51        -7.2030    5.2480   -0.0360 c         1 MOL      0.451124
    151 O21        -7.4110    5.9630    0.9230 o         1 MOL     -0.583209
    152 C52        -5.9410    3.6850    1.4180 c3        1 MOL      0.105168
    153 C53        -5.0070    2.5010    1.5110 c3        1 MOL     -0.187509
    154 C54        -4.1660    2.5230    2.7800 c         1 MOL      0.726511
    155 O22        -2.9200    2.4480    2.7300 o         1 MOL     -0.716414
    156 O23        -4.7220    2.5020    3.9080 o         1 MOL     -0.716414
    157 H67        -8.2230    2.5260    1.3970 hn        1 MOL      0.263827
    158 H68        -6.4290    3.3000   -0.6080 h1        1 MOL      0.027253
    159 H69        -6.4900    3.7380    2.3620 hc        1 MOL     -0.024630
    160 H70        -5.3700    4.6090    1.4470 hc        1 MOL     -0.024630
    161 H71        -4.3790    2.3650    0.6330 hc        1 MOL     -0.015447
    162 H72        -5.5880    1.5820    1.6630 hc        1 MOL     -0.015447
    163 N14        -7.1580    5.7940   -1.2520 n         1 MOL     -0.398616
    164 C55        -6.7410    5.0500   -2.4730 c3        1 MOL     -0.093098
    165 H73        -5.9920    4.3030   -2.2050 h1        1 MOL      0.073095
    166 H74        -7.6070    4.5540   -2.9110 h1        1 MOL      0.073095
    167 H75        -6.3160    5.7460   -3.1960 h1        1 MOL      0.073095
    168 H76        -7.5640    6.7090   -1.3750 hn        1 MOL      0.290939
    169 Ca1         6.0550    0.3510   -1.0280 Ca        1 MOL      1.703641
    170 O24         8.0890   -0.9190   -2.5300 oh        1 MOL     -0.836762
    171 H77         8.7880   -1.4230   -2.1220 ho        1 MOL      0.417226
    172 H78         8.0810   -1.1970   -3.4410 ho        1 MOL      0.417226
    173 O25         3.7970   -0.5400    0.2030 oh        1 MOL     -0.836762
    174 H79         3.1900    0.1180    0.5490 ho        1 MOL      0.417226
    175 H80         3.5240   -1.3630    0.6000 ho        1 MOL      0.417226
    176 O26         5.0070   -1.1790   -3.0890 oh        1 MOL     -0.836762
    177 H81         4.2680   -0.7730   -3.5540 ho        1 MOL      0.417226
    178 H82         5.2320   -1.9400   -3.6210 ho        1 MOL      0.417226
    179 O27         4.0400    2.0290   -1.9790 oh        1 MOL     -0.836762
    180 H83         3.2460    2.1080   -2.5230 ho        1 MOL      0.417226
    181 H84         3.9460    2.7220   -1.3210 ho        1 MOL      0.417226
@<TRIPOS>BOND
     1    1    2 1   
     2    1    4 1   
     3    1    5 1   
     4    1    6 1   
     5    2    3 2   
     6    2    7 1   
     7    7    8 1   
     8    7   15 1   
     9    8    9 1   
    10    8   11 1   
    11    8   16 1   
    12    9   10 2   
    13    9   19 1   
    14   11   12 1   
    15   11   17 1   
    16   11   18 1   
    17   12   13 1   
    18   12   14 1   
    19   19   20 1   
    20   19   24 1   
    21   20   21 1   
    22   20   23 1   
    23   20   25 1   
    24   21   22 2   
    25   21   29 1   
    26   23   26 1   
    27   23   27 1   
    28   23   28 1   
    29   29   30 1   
    30   29   37 1   
    31   30   31 1   
    32   30   33 1   
    33   30   38 1   
    34   31   32 2   
    35   31   41 1   
    36   33   34 1   
    37   33   39 1   
    38   33   40 1   
    39   34   35 1   
    40   34   36 1   
    41   41   42 1   
    42   41   45 1   
    43   42   43 1   
    44   42   46 1   
    45   42   47 1   
    46   43   44 2   
    47   43   48 1   
    48   48   49 1   
    49   48   56 1   
    50   49   50 1   
    51   49   52 1   
    52   49   57 1   
    53   50   51 2   
    54   50   62 1   
    55   52   53 1   
    56   52   58 1   
    57   52   59 1   
    58   53   54 1   
    59   53   55 2   
    60   54   60 1   
    61   54   61 1   
    62   62   63 1   
    63   62   66 1   
    64   63   64 1   
    65   63   67 1   
    66   63   68 1   
    67   64   65 2   
    68   64   69 1   
    69   69   70 1   
    70   69   76 1   
    71   70   71 1   
    72   70   73 1   
    73   70   77 1   
    74   71   72 2   
    75   71   83 1   
    76   73   74 1   
    77   73   75 1   
    78   73   78 1   
    79   74   80 1   
    80   74   81 1   
    81   74   82 1   
    82   75   79 1   
    83   83   84 1   
    84   83   91 1   
    85   84   85 1   
    86   84   87 1   
    87   84   92 1   
    88   85   86 2   
    89   85  102 1   
    90   87   88 1   
    91   87   89 1   
    92   87   93 1   
    93   88   90 1   
    94   88   94 1   
    95   88   95 1   
    96   89   96 1   
    97   89   97 1   
    98   89   98 1   
    99   90   99 1   
   100   90  100 1   
   101   90  101 1   
   102  102  103 1   
   103  102  110 1   
   104  103  104 1   
   105  103  106 1   
   106  103  111 1   
   107  104  105 2   
   108  104  114 1   
   109  106  107 1   
   110  106  112 1   
   111  106  113 1   
   112  107  108 1   
   113  107  109 1   
   114  114  115 1   
   115  114  125 1   
   116  115  116 1   
   117  115  118 1   
   118  115  126 1   
   119  116  117 2   
   120  116  134 1   
   121  118  119 1   
   122  118  127 1   
   123  118  128 1   
   124  119  120 ar  
   125  119  121 ar  
   126  120  122 ar  
   127  120  129 1   
   128  121  123 ar  
   129  121  130 1   
   130  122  124 ar  
   131  122  131 1   
   132  123  124 ar  
   133  123  132 1   
   134  124  133 1   
   135  134  135 1   
   136  134  140 1   
   137  135  136 1   
   138  135  138 1   
   139  135  141 1   
   140  136  137 2   
   141  136  148 1   
   142  138  139 1   
   143  138  142 1   
   144  138  143 1   
   145  139  140 1   
   146  139  144 1   
   147  139  145 1   
   148  140  146 1   
   149  140  147 1   
   150  148  149 1   
   151  148  157 1   
   152  149  150 1   
   153  149  152 1   
   154  149  158 1   
   155  150  151 2   
   156  150  163 1   
   157  152  153 1   
   158  152  159 1   
   159  152  160 1   
   160  153  154 1   
   161  153  161 1   
   162  153  162 1   
   163  154  155 1   
   164  154  156 1   
   165  163  164 1   
   166  163  168 1   
   167  164  165 1   
   168  164  166 1   
   169  164  167 1   
   170  170  171 1   
   171  170  172 1   
   172  173  174 1   
   173  173  175 1   
   174  176  177 1   
   175  176  178 1   
   176  179  180 1   
   177  179  181 1   
@<TRIPOS>SUBSTRUCTURE
     1 MOL         1 TEMP              0 ****  ****    0 ROOT
