@<TRIPOS>MOLECULE
MOL
  198   191     1     0     0
SMALL
resp


@<TRIPOS>ATOM
      1 C1         10.7940   -7.2070    0.4690 c3        1 MOL     -0.358206
      2 C2         10.8040   -5.7520   -0.1260 c         1 MOL      0.721030
      3 O1         11.7230   -4.9650    0.1500 o         1 MOL     -0.584532
      4 H1         11.4010   -7.2330    1.3750 hc        1 MOL      0.092159
      5 H2          9.7700   -7.4950    0.7090 hc        1 MOL      0.092159
      6 H3         11.2050   -7.9030   -0.2630 hc        1 MOL      0.092159
      7 N1          9.8760   -5.4190   -1.0480 n         1 MOL     -0.492706
      8 C3          9.8290   -4.0370   -1.5430 c3        1 MOL     -0.112278
      9 C4          9.4040   -2.9370   -0.6120 c         1 MOL      0.369981
     10 O2          8.5220   -3.2080    0.2460 o         1 MOL     -0.527496
     11 C5          8.9060   -3.9340   -2.7450 c3        1 MOL     -0.160150
     12 C6          7.5430   -4.6970   -2.5680 c         1 MOL      0.662066
     13 O3          7.3630   -5.8300   -3.1350 o         1 MOL     -0.676542
     14 O4          6.6270   -4.1490   -1.8850 o         1 MOL     -0.676542
     15 H4          9.1590   -6.0950   -1.2660 hn        1 MOL      0.298508
     16 H5         10.7750   -3.8490   -2.0340 h1        1 MOL      0.122831
     17 H6          9.3840   -4.3020   -3.6550 hc        1 MOL      0.068169
     18 H7          8.6810   -2.8820   -2.9090 hc        1 MOL      0.068169
     19 N2          9.8890   -1.7270   -0.7270 n         1 MOL     -0.222259
     20 C7          9.6540   -0.5910    0.1130 c3        1 MOL      0.143510
     21 C8          8.4680    0.1530   -0.5890 c         1 MOL      0.087131
     22 O5          8.0070   -0.1170   -1.6700 o         1 MOL     -0.407599
     23 C9         10.9760    0.2320    0.2010 c3        1 MOL     -0.370672
     24 C10        11.3740    0.8800   -1.1070 c3        1 MOL     -0.017325
     25 C11        12.8110    1.3740   -0.9110 c3        1 MOL     -0.068412
     26 C12        13.2210    1.6930   -2.3000 c3        1 MOL      0.108710
     27 N3         14.5890    2.2520   -2.3730 n4        1 MOL     -0.221818
     28 H8         10.4880   -1.5500   -1.5190 hn        1 MOL      0.217850
     29 H9          9.2470   -1.0270    1.0270 h1        1 MOL      0.122631
     30 H10        11.8020   -0.3930    0.5640 hc        1 MOL      0.128751
     31 H11        10.7920    1.0180    0.9310 hc        1 MOL      0.128751
     32 H12        10.7630    1.7630   -1.2860 hc        1 MOL      0.086518
     33 H13        11.3190    0.2040   -1.9640 hc        1 MOL      0.086518
     34 H14        13.5400    0.6620   -0.5220 hc        1 MOL      0.046975
     35 H15        12.8690    2.2820   -0.3170 hc        1 MOL      0.046975
     36 H16        12.5040    2.4310   -2.6580 hx        1 MOL      0.045127
     37 H17        13.0340    0.8720   -2.9870 hx        1 MOL      0.045127
     38 H18        14.7690    2.5170   -3.3220 hn        1 MOL      0.229539
     39 H19        14.7250    2.9870   -1.6950 hn        1 MOL      0.229539
     40 H20        15.2430    1.5090   -2.1270 hn        1 MOL      0.229539
     41 N4          7.8500    1.0760    0.1560 n         1 MOL     -0.167878
     42 C13         6.6570    1.8090   -0.1720 c3        1 MOL      0.143835
     43 C14         6.3530    2.9410    0.8130 c         1 MOL      0.203629
     44 O6          6.8070    2.9220    1.9640 o         1 MOL     -0.487083
     45 C15         5.4360    0.8830   -0.1160 c3        1 MOL     -0.055693
     46 C16         5.4260   -0.1050    1.0720 c         1 MOL      0.581732
     47 O7          5.8460   -1.2370    0.9930 o         1 MOL     -0.642030
     48 O8          4.9110    0.2890    2.1570 o         1 MOL     -0.642030
     49 H21         8.2000    1.3740    1.0490 hn        1 MOL      0.224114
     50 H22         6.6620    2.2360   -1.1790 h1        1 MOL      0.049263
     51 H23         5.2690    0.3970   -1.0750 hc        1 MOL      0.033436
     52 H24         4.5380    1.5010    0.0060 hc        1 MOL      0.033436
     53 N5          5.6730    3.9880    0.4780 n         1 MOL     -0.178547
     54 C17         4.9850    4.3500   -0.6860 c3        1 MOL     -0.120098
     55 C18         3.8510    5.2530   -0.4170 c         1 MOL      0.755981
     56 O9          3.4400    5.4110    0.7170 o         1 MOL     -0.588793
     57 H25         5.6430    4.6720    1.2230 hn        1 MOL      0.254248
     58 H26         4.6780    3.4620   -1.2320 h1        1 MOL      0.053788
     59 H27         5.6810    4.9220   -1.2960 h1        1 MOL      0.053788
     60 N6          3.3440    5.9370   -1.4580 n         1 MOL     -0.644871
     61 C19         2.2330    6.8610   -1.4080 c3        1 MOL      0.230539
     62 C20         0.9860    6.0710   -1.1390 c         1 MOL      0.658314
     63 O10         0.7510    5.1260   -1.9090 o         1 MOL     -0.564311
     64 C21         2.0250    7.5230   -2.7720 c3        1 MOL     -0.173013
     65 C22         1.0820    8.7030   -2.8260 c         1 MOL      0.640395
     66 O11         0.6330    9.0000   -3.9840 o         1 MOL     -0.648056
     67 O12         0.6690    9.1680   -1.7520 o         1 MOL     -0.648056
     68 H28         3.6120    5.6550   -2.3890 hn        1 MOL      0.293484
     69 H29         2.3560    7.7020   -0.7190 h1        1 MOL     -0.004731
     70 H30         1.7470    6.7320   -3.4710 hc        1 MOL      0.041722
     71 H31         3.0010    7.8860   -3.0940 hc        1 MOL      0.041722
     72 N7          0.2150    6.4070   -0.0720 n         1 MOL     -0.514268
     73 C23        -0.9690    5.6930    0.2710 c3        1 MOL      0.103330
     74 C24        -0.7060    4.4150    0.9270 c         1 MOL      0.428403
     75 O13        -1.6430    3.7300    1.3410 o         1 MOL     -0.556068
     76 H32         0.5950    7.1040    0.5470 hn        1 MOL      0.291212
     77 H33        -1.6230    5.4900   -0.5820 h1        1 MOL      0.081194
     78 H34        -1.6530    6.2420    0.9260 h1        1 MOL      0.081194
     79 N8          0.5910    3.9510    1.0920 n         1 MOL     -0.236904
     80 C25         0.8870    2.7160    1.8760 c3        1 MOL      0.054319
     81 C26         0.2030    1.5090    1.2890 c         1 MOL      0.335230
     82 O14         0.3920    1.2770    0.1010 o         1 MOL     -0.528303
     83 C27         2.3530    2.4620    2.2500 c3        1 MOL      0.248677
     84 C28         2.9450    3.3800    3.3430 c3        1 MOL     -0.273880
     85 O15         2.3970    1.1480    2.8310 oh        1 MOL     -0.642496
     86 H35         1.3610    4.4140    0.6160 hn        1 MOL      0.124266
     87 H36         0.3810    2.9130    2.8150 h1        1 MOL      0.041370
     88 H37         3.0300    2.5190    1.3990 h1        1 MOL      0.053964
     89 H38         3.2980    0.8630    2.6670 ho        1 MOL      0.432758
     90 H39         2.4670    4.3550    3.3530 hc        1 MOL      0.067903
     91 H40         2.7900    3.0040    4.3530 hc        1 MOL      0.067903
     92 H41         4.0340    3.3700    3.2500 hc        1 MOL      0.067903
     93 N9         -0.5260    0.7120    2.0580 n         1 MOL      0.069922
     94 C29        -1.2150   -0.5430    1.7170 c3        1 MOL     -0.330803
     95 C30        -2.6270   -0.2770    1.0420 c         1 MOL      0.484192
     96 O16        -3.0690   -1.1740    0.2850 o         1 MOL     -0.533046
     97 C31        -1.4680   -1.3560    3.0420 c3        1 MOL      0.352765
     98 C32        -0.1770   -1.6170    3.8210 c3        1 MOL     -0.182141
     99 C33        -2.2510   -2.6410    2.9200 c3        1 MOL     -0.220848
    100 C34         0.8360   -2.4850    3.1140 c3        1 MOL     -0.045143
    101 H42        -0.7730    1.0060    2.9940 hn        1 MOL      0.153701
    102 H43        -0.5580   -1.0980    1.0500 h1        1 MOL      0.174638
    103 H44        -2.0350   -0.7360    3.7420 hc        1 MOL     -0.072856
    104 H45        -0.4050   -2.0950    4.7800 hc        1 MOL      0.055566
    105 H46         0.3510   -0.6740    3.9380 hc        1 MOL      0.055566
    106 H47        -2.4790   -3.0950    3.8840 hc        1 MOL      0.056954
    107 H48        -3.1640   -2.4440    2.3520 hc        1 MOL      0.056954
    108 H49        -1.5460   -3.3080    2.4140 hc        1 MOL      0.056954
    109 H50         1.8310   -2.1520    3.4030 hc        1 MOL     -0.011699
    110 H51         0.6960   -3.5480    3.3400 hc        1 MOL     -0.011699
    111 H52         0.8170   -2.2610    2.0450 hc        1 MOL     -0.011699
    112 N10        -3.2580    0.8730    1.2690 n         1 MOL     -0.416196
    113 C35        -4.4550    1.2960    0.6120 c3        1 MOL      0.064835
    114 C36        -5.6240    1.4730    1.5450 c         1 MOL      0.643940
    115 O17        -5.4630    1.9350    2.6480 o         1 MOL     -0.532662
    116 C37        -4.2030    2.5250   -0.2780 c3        1 MOL      0.538016
    117 C38        -3.1830    2.2690   -1.3870 c3        1 MOL     -0.427128
    118 O18        -5.4280    2.9890   -0.9350 oh        1 MOL     -0.748462
    119 H53        -2.7260    1.5390    1.8120 hn        1 MOL      0.219114
    120 H54        -4.7150    0.4790   -0.0600 h1        1 MOL      0.034258
    121 H55        -3.7460    3.2910    0.3550 h1        1 MOL     -0.023724
    122 H56        -5.4040    2.8470   -1.8850 ho        1 MOL      0.426342
    123 H57        -2.6830    3.1040   -1.8800 hc        1 MOL      0.115568
    124 H58        -2.3840    1.6380   -0.9820 hc        1 MOL      0.115568
    125 H59        -3.6990    1.7420   -2.1890 hc        1 MOL      0.115568
    126 N11        -6.8670    1.3870    1.0040 n         1 MOL     -0.621617
    127 C39        -8.0510    1.8940    1.6110 c3        1 MOL      0.087805
    128 C40        -9.2050    0.8740    1.5180 c         1 MOL      0.604827
    129 O19        -9.7550    0.5800    2.5700 o         1 MOL     -0.555998
    130 C41        -8.4010    3.2580    1.0290 c3        1 MOL      0.260990
    131 C42        -9.8150    3.8310    1.3340 c3        1 MOL     -0.246352
    132 O20        -8.2230    3.2820   -0.4170 oh        1 MOL     -0.674761
    133 H60        -6.8630    1.0080    0.0620 hn        1 MOL      0.272345
    134 H61        -7.8860    1.9640    2.6900 h1        1 MOL      0.066226
    135 H62        -7.6390    3.9140    1.4460 h1        1 MOL      0.042745
    136 H63        -7.2980    3.1760   -0.6330 ho        1 MOL      0.439998
    137 H64       -10.0960    4.5810    0.5840 hc        1 MOL      0.068143
    138 H65       -10.5400    3.0210    1.3710 hc        1 MOL      0.068143
    139 H66        -9.8270    4.4170    2.2500 hc        1 MOL      0.068143
    140 N12        -9.4760    0.2880    0.3110 n         1 MOL     -0.442639
    141 C43       -10.6440   -0.5970    0.0260 c3        1 MOL     -0.038778
    142 C44       -10.3200   -1.4180   -1.2370 c         1 MOL      0.599281
    143 O21        -9.7780   -0.8380   -2.1830 o         1 MOL     -0.524564
    144 C45       -11.8910    0.3600   -0.1860 c3        1 MOL     -0.327445
    145 C46       -13.2030   -0.4120   -0.1840 c3        1 MOL      0.238713
    146 C47       -14.3790    0.4980   -0.2360 c3        1 MOL      0.037490
    147 C48       -15.8090   -0.1190   -0.0770 c3        1 MOL      0.181270
    148 N13       -16.8630    0.7950   -0.6190 n4        1 MOL     -0.382881
    149 H67        -8.9760    0.5440   -0.5240 hn        1 MOL      0.279909
    150 H68       -10.8080   -1.2830    0.8560 h1        1 MOL      0.095018
    151 H69       -11.8400    0.9660   -1.0910 hc        1 MOL      0.127796
    152 H70       -11.9030    1.0110    0.6860 hc        1 MOL      0.127796
    153 H71       -13.2320   -1.0360    0.7140 hc        1 MOL     -0.071301
    154 H72       -13.2080   -1.0830   -1.0390 hc        1 MOL     -0.071301
    155 H73       -14.3860    1.0110   -1.2000 hc        1 MOL     -0.016486
    156 H74       -14.2500    1.2450    0.5520 hc        1 MOL     -0.016486
    157 H75       -16.0830   -0.3860    0.9420 hx        1 MOL      0.038548
    158 H76       -15.8530   -1.0680   -0.6180 hx        1 MOL      0.038548
    159 H77       -16.9040    1.6220   -0.0450 hn        1 MOL      0.306431
    160 H78       -16.5860    1.0650   -1.5470 hn        1 MOL      0.306431
    161 H79       -17.7540    0.3330   -0.7390 hn        1 MOL      0.306431
    162 N14       -10.6850   -2.6900   -1.2270 n         1 MOL     -0.312964
    163 C49       -10.2530   -3.7310   -2.1440 c3        1 MOL      0.035503
    164 C50        -8.7300   -3.8480   -2.2380 c         1 MOL      0.415917
    165 O22        -8.1610   -3.6280   -3.3290 o         1 MOL     -0.507073
    166 C51       -10.9330   -5.0490   -1.8050 c3        1 MOL      0.083810
    167 C52       -12.4330   -5.0890   -2.1740 c3        1 MOL     -0.242796
    168 C53       -12.8700   -6.4740   -1.5840 c         1 MOL      0.633899
    169 O23       -13.0560   -6.5790   -0.3490 o         1 MOL     -0.641830
    170 O24       -12.8360   -7.4680   -2.3470 o         1 MOL     -0.641830
    171 H80       -11.1710   -2.9640   -0.3880 hn        1 MOL      0.234459
    172 H81       -10.6230   -3.4770   -3.1450 h1        1 MOL      0.063694
    173 H82       -10.7410   -5.1850   -0.7400 hc        1 MOL      0.042070
    174 H83       -10.5660   -5.9380   -2.3250 hc        1 MOL      0.042070
    175 H84       -12.6690   -4.9630   -3.2350 hc        1 MOL      0.028666
    176 H85       -12.8580   -4.2570   -1.6090 hc        1 MOL      0.028666
    177 N15        -7.8700   -4.1270   -1.1690 n         1 MOL     -0.466615
    178 C54        -8.0490   -4.2260    0.2780 c3        1 MOL     -0.003534
    179 H86        -7.0740   -4.2670    0.7620 h1        1 MOL      0.045884
    180 H87        -8.5950   -3.3540    0.6370 h1        1 MOL      0.045884
    181 H88        -8.6100   -5.1300    0.5140 h1        1 MOL      0.045884
    182 H89        -6.9060   -3.9540   -1.4290 hn        1 MOL      0.322888
    183 Ca1         5.9120   -3.8020    0.5780 Ca        1 MOL      1.724806
    184 O25         3.7060   -3.9920    2.3440 oh        1 MOL     -0.874157
    185 H90         3.4110   -3.3110    2.9390 ho        1 MOL      0.436877
    186 H91         2.8980   -4.3210    1.9370 ho        1 MOL      0.436877
    187 O26         6.5960   -3.6040    3.1430 oh        1 MOL     -0.874157
    188 H92         7.0720   -4.2460    3.6700 ho        1 MOL      0.436877
    189 H93         6.0420   -3.1490    3.7770 ho        1 MOL      0.436877
    190 O27         4.2260   -5.8050   -0.3620 oh        1 MOL     -0.874157
    191 H94         3.2780   -5.7880   -0.5290 ho        1 MOL      0.436877
    192 H95         4.4320   -6.7350   -0.2560 ho        1 MOL      0.436877
    193 O28         3.9710   -2.8570   -0.9740 oh        1 MOL     -0.874157
    194 H96         3.5120   -2.0390   -1.1710 ho        1 MOL      0.436877
    195 H97         3.5070   -3.5210   -1.4840 ho        1 MOL      0.436877
    196 O29         6.6230   -6.1320    1.5390 oh        1 MOL     -0.874157
    197 H98         7.0610   -6.4150    2.3460 ho        1 MOL      0.436877
    198 H99         6.5600   -6.9170    0.9960 ho        1 MOL      0.436877
@<TRIPOS>BOND
     1    1    2 1   
     2    1    4 1   
     3    1    5 1   
     4    1    6 1   
     5    2    3 2   
     6    2    7 1   
     7    7    8 1   
     8    7   15 1   
     9    8    9 1   
    10    8   11 1   
    11    8   16 1   
    12    9   10 2   
    13    9   19 1   
    14   11   12 1   
    15   11   17 1   
    16   11   18 1   
    17   12   13 1   
    18   12   14 1   
    19   19   20 1   
    20   19   28 1   
    21   20   21 1   
    22   20   23 1   
    23   20   29 1   
    24   21   22 2   
    25   21   41 1   
    26   23   24 1   
    27   23   30 1   
    28   23   31 1   
    29   24   25 1   
    30   24   32 1   
    31   24   33 1   
    32   25   26 1   
    33   25   34 1   
    34   25   35 1   
    35   26   27 1   
    36   26   36 1   
    37   26   37 1   
    38   27   38 1   
    39   27   39 1   
    40   27   40 1   
    41   41   42 1   
    42   41   49 1   
    43   42   43 1   
    44   42   45 1   
    45   42   50 1   
    46   43   44 2   
    47   43   53 1   
    48   45   46 1   
    49   45   51 1   
    50   45   52 1   
    51   46   47 1   
    52   46   48 1   
    53   53   54 1   
    54   53   57 1   
    55   54   55 1   
    56   54   58 1   
    57   54   59 1   
    58   55   56 2   
    59   55   60 1   
    60   60   61 1   
    61   60   68 1   
    62   61   62 1   
    63   61   64 1   
    64   61   69 1   
    65   62   63 2   
    66   62   72 1   
    67   64   65 1   
    68   64   70 1   
    69   64   71 1   
    70   65   66 1   
    71   65   67 1   
    72   72   73 1   
    73   72   76 1   
    74   73   74 1   
    75   73   77 1   
    76   73   78 1   
    77   74   75 2   
    78   74   79 1   
    79   79   80 1   
    80   79   86 1   
    81   80   81 1   
    82   80   83 1   
    83   80   87 1   
    84   81   82 2   
    85   81   93 1   
    86   83   84 1   
    87   83   85 1   
    88   83   88 1   
    89   84   90 1   
    90   84   91 1   
    91   84   92 1   
    92   85   89 1   
    93   93   94 1   
    94   93  101 1   
    95   94   95 1   
    96   94   97 1   
    97   94  102 1   
    98   95   96 2   
    99   95  112 1   
   100   97   98 1   
   101   97   99 1   
   102   97  103 1   
   103   98  100 1   
   104   98  104 1   
   105   98  105 1   
   106   99  106 1   
   107   99  107 1   
   108   99  108 1   
   109  100  109 1   
   110  100  110 1   
   111  100  111 1   
   112  112  113 1   
   113  112  119 1   
   114  113  114 1   
   115  113  116 1   
   116  113  120 1   
   117  114  115 2   
   118  114  126 1   
   119  116  117 1   
   120  116  118 1   
   121  116  121 1   
   122  117  123 1   
   123  117  124 1   
   124  117  125 1   
   125  118  122 1   
   126  126  127 1   
   127  126  133 1   
   128  127  128 1   
   129  127  130 1   
   130  127  134 1   
   131  128  129 2   
   132  128  140 1   
   133  130  131 1   
   134  130  132 1   
   135  130  135 1   
   136  131  137 1   
   137  131  138 1   
   138  131  139 1   
   139  132  136 1   
   140  140  141 1   
   141  140  149 1   
   142  141  142 1   
   143  141  144 1   
   144  141  150 1   
   145  142  143 2   
   146  142  162 1   
   147  144  145 1   
   148  144  151 1   
   149  144  152 1   
   150  145  146 1   
   151  145  153 1   
   152  145  154 1   
   153  146  147 1   
   154  146  155 1   
   155  146  156 1   
   156  147  148 1   
   157  147  157 1   
   158  147  158 1   
   159  148  159 1   
   160  148  160 1   
   161  148  161 1   
   162  162  163 1   
   163  162  171 1   
   164  163  164 1   
   165  163  166 1   
   166  163  172 1   
   167  164  165 2   
   168  164  177 1   
   169  166  167 1   
   170  166  173 1   
   171  166  174 1   
   172  167  168 1   
   173  167  175 1   
   174  167  176 1   
   175  168  169 1   
   176  168  170 1   
   177  177  178 1   
   178  177  182 1   
   179  178  179 1   
   180  178  180 1   
   181  178  181 1   
   182  184  185 1   
   183  184  186 1   
   184  187  188 1   
   185  187  189 1   
   186  190  191 1   
   187  190  192 1   
   188  193  194 1   
   189  193  195 1   
   190  196  197 1   
   191  196  198 1   
@<TRIPOS>SUBSTRUCTURE
     1 MOL         1 TEMP              0 ****  ****    0 ROOT
