@<TRIPOS>MOLECULE
MOL
  189   185     1     0     0
SMALL
resp


@<TRIPOS>ATOM
      1 C1          4.6380    3.5130   -3.9200 c3        1 MOL     -0.404019
      2 C2          5.4330    2.8290   -2.7420 c         1 MOL      0.900654
      3 O1          5.0280    2.7870   -1.6000 o         1 MOL     -0.735057
      4 H1          3.7690    4.0350   -3.5170 hc        1 MOL      0.093274
      5 H2          5.2850    4.2270   -4.4290 hc        1 MOL      0.093274
      6 H3          4.3080    2.7520   -4.6270 hc        1 MOL      0.093274
      7 N1          6.4630    2.1500   -3.0860 n         1 MOL     -0.744716
      8 C3          7.0710    1.0120   -2.3640 c3        1 MOL      0.181656
      9 C4          6.0100    0.0300   -1.8370 c         1 MOL      0.263310
     10 O2          5.7970    0.0030   -0.6180 o         1 MOL     -0.509344
     11 C5          8.1950    1.4370   -1.3630 c3        1 MOL      0.014117
     12 C6          7.8770    2.4500   -0.2920 c         1 MOL      0.771722
     13 O3          7.2570    2.0480    0.7120 o         1 MOL     -0.763884
     14 O4          8.3850    3.6410   -0.3530 o         1 MOL     -0.763884
     15 H4          6.7320    2.1760   -4.0560 hn        1 MOL      0.334004
     16 H5          7.5730    0.4110   -3.1140 h1        1 MOL      0.028822
     17 H6          9.0690    1.8470   -1.8840 hc        1 MOL     -0.006356
     18 H7          8.6190    0.5670   -0.8460 hc        1 MOL     -0.006356
     19 N2          5.3790   -0.7270   -2.7390 n         1 MOL     -0.271636
     20 C7          4.6400   -1.9660   -2.7290 c3        1 MOL      0.104710
     21 C8          5.3040   -3.0970   -1.9370 c         1 MOL      0.288707
     22 O5          5.2520   -4.2880   -2.4030 o         1 MOL     -0.541157
     23 C9          3.2010   -1.6970   -2.2860 c3        1 MOL      0.128270
     24 C10         2.3390   -3.0150   -2.4090 c3        1 MOL      0.158826
     25 C11         2.6050   -0.5460   -3.0810 c3        1 MOL     -0.374904
     26 C12         2.2700   -3.6030   -3.8650 c3        1 MOL     -0.180352
     27 H8          5.5750   -0.5240   -3.7030 hn        1 MOL      0.237436
     28 H9          4.5920   -2.2970   -3.7640 h1        1 MOL      0.025484
     29 H10         3.3170   -1.4690   -1.2270 hc        1 MOL     -0.063578
     30 H11         1.3640   -2.6420   -2.0910 hc        1 MOL     -0.014142
     31 H12         2.5570   -3.7420   -1.6290 hc        1 MOL     -0.014142
     32 H13         2.9130    0.3500   -2.5430 hc        1 MOL      0.083140
     33 H14         2.9250   -0.4390   -4.1150 hc        1 MOL      0.083140
     34 H15         1.5120   -0.5060   -3.0500 hc        1 MOL      0.083140
     35 H16         2.2290   -2.9210   -4.7150 hc        1 MOL      0.026239
     36 H17         3.1210   -4.2800   -3.9470 hc        1 MOL      0.026239
     37 H18         1.3760   -4.2160   -3.9390 hc        1 MOL      0.026239
     38 N3          5.9090   -2.7870   -0.7660 n         1 MOL     -0.211617
     39 C13         6.6320   -3.7760    0.0550 c3        1 MOL      0.229083
     40 C14         5.8420   -4.8400    0.8750 c         1 MOL      0.499575
     41 O6          6.4410   -5.8740    1.0710 o         1 MOL     -0.568184
     42 C15         7.6350   -3.0860    0.9560 c3        1 MOL     -0.151070
     43 C16         8.7210   -2.2050    0.3240 c         1 MOL      0.688683
     44 O7          9.4170   -1.5220    1.1720 o         1 MOL     -0.719033
     45 O8          9.0610   -2.3350   -0.8380 o         1 MOL     -0.719033
     46 H19         5.8800   -1.8250   -0.4700 hn        1 MOL      0.255046
     47 H20         7.2660   -4.3740   -0.6000 h1        1 MOL      0.014756
     48 H21         8.0710   -3.8270    1.6170 hc        1 MOL      0.036145
     49 H22         7.1130   -2.4330    1.6450 hc        1 MOL      0.036145
     50 N4          4.5900   -4.7220    1.4250 n         1 MOL     -0.564195
     51 C17         3.7440   -3.5780    1.7050 c3        1 MOL      0.113265
     52 C18         4.0400   -2.9530    3.0130 c         1 MOL      0.523847
     53 O9          4.9060   -3.4310    3.7620 o         1 MOL     -0.558505
     54 H23         4.3280   -5.5350    1.9610 hn        1 MOL      0.303388
     55 H24         2.6770   -3.7990    1.7850 h1        1 MOL      0.044505
     56 H25         4.0290   -2.8620    0.9350 h1        1 MOL      0.044505
     57 N5          3.3690   -1.8930    3.4510 n         1 MOL     -0.413640
     58 C19         2.0730   -1.4020    2.9390 c3        1 MOL      0.130667
     59 C20         2.0900   -0.7880    1.5650 c         1 MOL      0.116134
     60 O10         3.2070   -0.5160    1.1060 o         1 MOL     -0.485847
     61 C21         1.6820   -0.2900    3.8720 c3        1 MOL     -0.384495
     62 C22         2.7370    0.8750    3.9570 c         1 MOL      0.819458
     63 O11         2.7660    1.7460    3.0850 o         1 MOL     -0.693682
     64 O12         3.6060    0.7360    4.8670 o         1 MOL     -0.693682
     65 H26         3.6170   -1.5650    4.3770 hn        1 MOL      0.276010
     66 H27         1.2600   -2.1170    3.0100 h1        1 MOL      0.055248
     67 H28         1.4310   -0.7360    4.8410 hc        1 MOL      0.090797
     68 H29         0.7520    0.1350    3.4830 hc        1 MOL      0.090797
     69 N6          1.0410   -0.5530    0.7760 n         1 MOL     -0.053612
     70 C23        -0.3620   -1.0020    1.1900 c3        1 MOL     -0.101992
     71 C24        -0.7420   -2.4510    0.8490 c         1 MOL      0.435956
     72 O13         0.1260   -3.2210    0.3780 o         1 MOL     -0.491639
     73 H30         1.2360   -0.1520   -0.1210 hn        1 MOL      0.291053
     74 H31        -1.1090   -0.3630    0.7260 h1        1 MOL      0.099621
     75 H32        -0.5300   -0.8140    2.2480 h1        1 MOL      0.099621
     76 N7         -1.9990   -2.8260    0.9990 n         1 MOL     -0.371470
     77 C25        -2.6640   -4.0630    0.4890 c3        1 MOL     -0.008140
     78 C26        -3.3630   -3.8790   -0.8970 c         1 MOL      0.545728
     79 O14        -3.4560   -4.8700   -1.5970 o         1 MOL     -0.550265
     80 C27        -3.5590   -4.7550    1.5530 c3        1 MOL      0.036745
     81 C28        -4.7790   -4.0290    2.2340 c3        1 MOL     -0.310966
     82 C29        -5.8810   -3.4530    1.3580 c         1 MOL      0.552536
     83 N8         -6.9390   -4.1330    0.9940 n         1 MOL     -0.814370
     84 O15        -5.6600   -2.3360    0.9320 o         1 MOL     -0.377929
     85 H33        -2.5480   -2.1580    1.5280 hn        1 MOL      0.280835
     86 H34        -1.8680   -4.7840    0.3160 h1        1 MOL      0.114035
     87 H35        -2.8990   -5.1420    2.3340 hc        1 MOL      0.019644
     88 H36        -4.0760   -5.6110    1.1050 hc        1 MOL      0.019644
     89 H37        -4.3220   -3.2030    2.7700 hc        1 MOL      0.101344
     90 H38        -5.2010   -4.7300    2.9610 hc        1 MOL      0.101344
     91 H39        -7.0000   -5.0670    1.3700 hn        1 MOL      0.382447
     92 H40        -7.5330   -3.7680    0.2530 hn        1 MOL      0.382447
     93 N9         -3.6830   -2.6750   -1.3750 n         1 MOL     -0.275616
     94 C30        -3.9820   -2.4600   -2.7720 c3        1 MOL     -0.204588
     95 C31        -5.3710   -1.8590   -3.0750 c         1 MOL      0.586169
     96 O16        -5.7200   -1.7800   -4.2080 o         1 MOL     -0.563386
     97 C32        -2.7730   -1.7050   -3.4240 c3        1 MOL      0.148812
     98 C33        -1.5600   -2.6050   -3.5350 c3        1 MOL     -0.150292
     99 C34        -2.4320   -0.3300   -2.8140 c3        1 MOL     -0.150292
    100 H41        -3.6550   -1.8000   -0.8810 hn        1 MOL      0.138833
    101 H42        -4.1280   -3.4190   -3.2560 h1        1 MOL      0.134135
    102 H43        -3.0780   -1.4610   -4.4480 hc        1 MOL     -0.000254
    103 H44        -1.2060   -2.6590   -2.5100 hc        1 MOL      0.038871
    104 H45        -1.7860   -3.6500   -3.7580 hc        1 MOL      0.038871
    105 H46        -0.8490   -2.2220   -4.2600 hc        1 MOL      0.038871
    106 H47        -1.8010   -0.3620   -1.9230 hc        1 MOL      0.038871
    107 H48        -1.7460    0.1480   -3.5190 hc        1 MOL      0.038871
    108 H49        -3.3550    0.2180   -2.6730 hc        1 MOL      0.038871
    109 N10        -6.0960   -1.4800   -2.0230 n         1 MOL     -0.206973
    110 C35        -7.3260   -0.6930   -2.1900 c3        1 MOL      0.007088
    111 C36        -7.2310    0.7730   -1.6980 c         1 MOL      0.516881
    112 O17        -8.2080    1.4900   -1.8760 o         1 MOL     -0.534903
    113 C37        -8.4570   -1.4960   -1.4430 c3        1 MOL     -0.260261
    114 C38        -8.7160   -2.8950   -1.9160 c         1 MOL      0.655718
    115 N11        -9.0020   -3.0190   -3.1760 n         1 MOL     -0.797430
    116 O18        -8.7120   -3.8380   -1.1570 o         1 MOL     -0.541269
    117 H50        -5.8440   -1.5850   -1.0540 hn        1 MOL      0.125566
    118 H51        -7.6940   -0.6900   -3.2290 h1        1 MOL      0.040806
    119 H52        -9.4050   -0.9640   -1.4130 hc        1 MOL      0.073998
    120 H53        -8.1710   -1.5910   -0.3930 hc        1 MOL      0.073998
    121 H54        -9.1060   -2.1410   -3.6710 hn        1 MOL      0.384025
    122 H55        -9.0820   -3.9100   -3.6340 hn        1 MOL      0.384025
    123 N12        -6.1350    1.1350   -1.0160 n         1 MOL     -0.454022
    124 C39        -6.0860    2.4430   -0.3610 c3        1 MOL      0.277004
    125 C40        -4.6100    2.9930   -0.0560 c         1 MOL      0.289579
    126 O19        -3.7290    2.1570   -0.0650 o         1 MOL     -0.360620
    127 C41        -6.9840    2.4970    0.8920 c3        1 MOL     -0.050019
    128 C42        -7.0330    1.2340    1.7260 ca        1 MOL     -0.037993
    129 C43        -8.2460    0.5290    1.9150 ca        1 MOL     -0.044502
    130 C44        -5.9250    0.8390    2.4680 ca        1 MOL     -0.044502
    131 C45        -8.3180   -0.6060    2.7680 ca        1 MOL     -0.429690
    132 C46        -5.9500   -0.3650    3.1920 ca        1 MOL     -0.429690
    133 C47        -7.1390   -1.1050    3.3980 ca        1 MOL      0.536780
    134 O20        -7.1850   -2.2040    4.1410 oh        1 MOL     -0.500003
    135 H56        -5.3500    0.4920   -0.9650 hn        1 MOL      0.274457
    136 H57        -6.5190    3.1090   -1.1020 h1        1 MOL      0.000627
    137 H58        -7.9990    2.6720    0.5260 hc        1 MOL      0.021983
    138 H59        -6.7250    3.4080    1.4300 hc        1 MOL      0.021983
    139 H60        -9.1350    0.8060    1.3740 ha        1 MOL      0.109242
    140 H61        -5.0050    1.3900    2.3570 ha        1 MOL      0.109242
    141 H62        -9.2180   -1.2040    2.8610 ha        1 MOL      0.163829
    142 H63        -5.0680   -0.7080    3.7180 ha        1 MOL      0.163829
    143 H64        -8.1000   -2.4090    4.3480 ho        1 MOL      0.333514
    144 N13        -4.4910    4.2560    0.3220 n         1 MOL     -0.519595
    145 C48        -3.2480    4.8240    0.8500 c3        1 MOL      0.131928
    146 C49        -2.1060    5.0130   -0.0860 c         1 MOL      0.518367
    147 O21        -1.6060    6.1360   -0.2110 o         1 MOL     -0.533621
    148 C50        -2.7790    4.3650    2.2170 c3        1 MOL      0.200738
    149 C51        -3.9120    4.3980    3.3050 c3        1 MOL     -0.041981
    150 C52        -3.4130    3.9010    4.6820 c         1 MOL      0.520238
    151 O22        -3.6980    2.7490    5.0810 o         1 MOL     -0.657497
    152 O23        -2.6350    4.5940    5.3380 o         1 MOL     -0.657497
    153 H65        -5.3140    4.8350    0.3620 hn        1 MOL      0.316497
    154 H66        -3.4440    5.8720    1.0800 h1        1 MOL      0.008925
    155 H67        -1.9970    5.0750    2.4800 hc        1 MOL     -0.016219
    156 H68        -2.3990    3.3500    2.1030 hc        1 MOL     -0.016219
    157 H69        -4.7380    3.7970    2.9430 hc        1 MOL     -0.033832
    158 H70        -4.2230    5.4420    3.3880 hc        1 MOL     -0.033832
    159 N14        -1.7160    3.9910   -0.8820 n         1 MOL     -0.440395
    160 C53        -0.4800    4.1020   -1.7260 c3        1 MOL     -0.359397
    161 C54        -0.6110    4.9010   -3.0830 c         1 MOL      0.652104
    162 O24         0.3330    5.3590   -3.6920 o         1 MOL     -0.554492
    163 C55        -0.0030    2.6760   -2.0470 c3        1 MOL      0.049729
    164 C56         0.1210    1.7730   -0.9270 c3        1 MOL      0.341004
    165 C57         1.2960    2.1920   -0.1050 c         1 MOL      0.396510
    166 O25         1.2000    3.0070    0.8510 o         1 MOL     -0.574618
    167 O26         2.4760    1.8050   -0.3250 o         1 MOL     -0.574618
    168 H71        -2.2150    3.1110   -0.8830 hn        1 MOL      0.277173
    169 H72         0.3310    4.5970   -1.1920 h1        1 MOL      0.224570
    170 H73         0.9440    2.8650   -2.5670 hc        1 MOL     -0.003468
    171 H74        -0.6350    2.2490   -2.8220 hc        1 MOL     -0.003468
    172 H75         0.2200    0.7370   -1.2490 hc        1 MOL     -0.150854
    173 H76        -0.7960    1.7210   -0.3450 hc        1 MOL     -0.150854
    174 N15        -1.8940    5.0910   -3.3860 n         1 MOL     -0.308000
    175 C58        -2.3590    5.9290   -4.5200 c3        1 MOL     -0.234833
    176 H77        -3.3570    6.3080   -4.3050 h1        1 MOL      0.099176
    177 H78        -1.6750    6.7660   -4.6590 h1        1 MOL      0.099176
    178 H79        -2.3880    5.3280   -5.4300 h1        1 MOL      0.099176
    179 H80        -2.5290    4.8630   -2.6280 hn        1 MOL      0.248356
    180 Ca1         4.5770    1.7850    0.9790 Ca        1 MOL      1.800861
    181 O27         5.6330    0.5580    3.1270 oh        1 MOL     -0.846885
    182 H81         4.9720    0.6700    3.8150 ho        1 MOL      0.402090
    183 H82         6.4560    0.4150    3.6080 ho        1 MOL      0.402090
    184 O28         3.5880    4.2520    0.9060 oh        1 MOL     -0.846885
    185 H83         2.7820    3.7680    1.0860 ho        1 MOL      0.402090
    186 H84         3.3590    4.8160    0.1610 ho        1 MOL      0.402090
    187 O29         5.9550    3.3770    3.0230 oh        1 MOL     -0.846885
    188 H85         5.8640    4.3320    3.0570 ho        1 MOL      0.402090
    189 H86         6.8990    3.2190    3.0850 ho        1 MOL      0.402090
@<TRIPOS>BOND
     1    1    2 1   
     2    1    4 1   
     3    1    5 1   
     4    1    6 1   
     5    2    3 2   
     6    2    7 1   
     7    7    8 1   
     8    7   15 1   
     9    8    9 1   
    10    8   11 1   
    11    8   16 1   
    12    9   10 2   
    13    9   19 1   
    14   11   12 1   
    15   11   17 1   
    16   11   18 1   
    17   12   13 1   
    18   12   14 1   
    19   19   20 1   
    20   19   27 1   
    21   20   21 1   
    22   20   23 1   
    23   20   28 1   
    24   21   22 2   
    25   21   38 1   
    26   23   24 1   
    27   23   25 1   
    28   23   29 1   
    29   24   26 1   
    30   24   30 1   
    31   24   31 1   
    32   25   32 1   
    33   25   33 1   
    34   25   34 1   
    35   26   35 1   
    36   26   36 1   
    37   26   37 1   
    38   38   39 1   
    39   38   46 1   
    40   39   40 1   
    41   39   42 1   
    42   39   47 1   
    43   40   41 2   
    44   40   50 1   
    45   42   43 1   
    46   42   48 1   
    47   42   49 1   
    48   43   44 1   
    49   43   45 1   
    50   50   51 1   
    51   50   54 1   
    52   51   52 1   
    53   51   55 1   
    54   51   56 1   
    55   52   53 2   
    56   52   57 1   
    57   57   58 1   
    58   57   65 1   
    59   58   59 1   
    60   58   61 1   
    61   58   66 1   
    62   59   60 2   
    63   59   69 1   
    64   61   62 1   
    65   61   67 1   
    66   61   68 1   
    67   62   63 1   
    68   62   64 1   
    69   69   70 1   
    70   69   73 1   
    71   70   71 1   
    72   70   74 1   
    73   70   75 1   
    74   71   72 2   
    75   71   76 1   
    76   76   77 1   
    77   76   85 1   
    78   77   78 1   
    79   77   80 1   
    80   77   86 1   
    81   78   79 2   
    82   78   93 1   
    83   80   81 1   
    84   80   87 1   
    85   80   88 1   
    86   81   82 1   
    87   81   89 1   
    88   81   90 1   
    89   82   83 1   
    90   82   84 2   
    91   83   91 1   
    92   83   92 1   
    93   93   94 1   
    94   93  100 1   
    95   94   95 1   
    96   94   97 1   
    97   94  101 1   
    98   95   96 2   
    99   95  109 1   
   100   97   98 1   
   101   97   99 1   
   102   97  102 1   
   103   98  103 1   
   104   98  104 1   
   105   98  105 1   
   106   99  106 1   
   107   99  107 1   
   108   99  108 1   
   109  109  110 1   
   110  109  117 1   
   111  110  111 1   
   112  110  113 1   
   113  110  118 1   
   114  111  112 2   
   115  111  123 1   
   116  113  114 1   
   117  113  119 1   
   118  113  120 1   
   119  114  115 1   
   120  114  116 2   
   121  115  121 1   
   122  115  122 1   
   123  123  124 1   
   124  123  135 1   
   125  124  125 1   
   126  124  127 1   
   127  124  136 1   
   128  125  126 2   
   129  125  144 1   
   130  127  128 1   
   131  127  137 1   
   132  127  138 1   
   133  128  129 ar  
   134  128  130 ar  
   135  129  131 ar  
   136  129  139 1   
   137  130  132 ar  
   138  130  140 1   
   139  131  133 ar  
   140  131  141 1   
   141  132  133 ar  
   142  132  142 1   
   143  133  134 1   
   144  134  143 1   
   145  144  145 1   
   146  144  153 1   
   147  145  146 1   
   148  145  148 1   
   149  145  154 1   
   150  146  147 2   
   151  146  159 1   
   152  148  149 1   
   153  148  155 1   
   154  148  156 1   
   155  149  150 1   
   156  149  157 1   
   157  149  158 1   
   158  150  151 1   
   159  150  152 1   
   160  159  160 1   
   161  159  168 1   
   162  160  161 1   
   163  160  163 1   
   164  160  169 1   
   165  161  162 2   
   166  161  174 1   
   167  163  164 1   
   168  163  170 1   
   169  163  171 1   
   170  164  165 1   
   171  164  172 1   
   172  164  173 1   
   173  165  166 1   
   174  165  167 1   
   175  174  175 1   
   176  174  179 1   
   177  175  176 1   
   178  175  177 1   
   179  175  178 1   
   180  181  182 1   
   181  181  183 1   
   182  184  185 1   
   183  184  186 1   
   184  187  188 1   
   185  187  189 1   
@<TRIPOS>SUBSTRUCTURE
     1 MOL         1 TEMP              0 ****  ****    0 ROOT
