@<TRIPOS>MOLECULE
MOL
  188   182     1     0     0
SMALL
resp


@<TRIPOS>ATOM
      1 C1          4.3780    3.8830    2.3980 c3        1 MOL     -0.356749
      2 C2          5.3430    2.9040    1.6940 c         1 MOL      0.775952
      3 O1          4.9120    1.9260    1.0890 o         1 MOL     -0.667108
      4 H1          4.1160    3.4900    3.3810 hc        1 MOL      0.086447
      5 H2          4.8630    4.8520    2.5130 hc        1 MOL      0.086447
      6 H3          3.4750    3.9970    1.8000 hc        1 MOL      0.086447
      7 N1          6.6200    3.0960    1.7750 n         1 MOL     -0.621395
      8 C3          7.6940    2.3450    1.0700 c3        1 MOL      0.208084
      9 C4          7.8040    0.8530    1.5080 c         1 MOL      0.371725
     10 O2          8.3350    0.0000    0.7500 o         1 MOL     -0.469477
     11 C5          7.7250    2.5460   -0.4730 c3        1 MOL     -0.302563
     12 C6          7.6400    4.0540   -0.7580 c         1 MOL      0.787316
     13 O3          8.7330    4.6540   -0.7690 o         1 MOL     -0.696155
     14 O4          6.5770    4.6000   -0.9990 o         1 MOL     -0.696155
     15 H4          6.8370    4.0000    2.1460 hn        1 MOL      0.329510
     16 H5          8.6330    2.7470    1.4410 h1        1 MOL      0.046057
     17 H6          6.8280    2.0350   -0.8040 hc        1 MOL      0.092435
     18 H7          8.6410    2.1040   -0.8500 hc        1 MOL      0.092435
     19 N2          7.1120    0.4570    2.5880 n         1 MOL     -0.311739
     20 C7          6.9180   -0.9330    2.9410 c3        1 MOL     -0.160329
     21 C8          6.0010   -1.6590    1.9960 c         1 MOL      0.617473
     22 O5          6.1570   -2.8830    1.8570 o         1 MOL     -0.601133
     23 C9          6.2490   -0.8610    4.4340 c3        1 MOL     -0.026104
     24 C10         6.2970   -2.1710    5.1480 c3        1 MOL     -0.032759
     25 C11         5.9640   -1.8820    6.5920 c3        1 MOL      0.152822
     26 C12         6.0240   -3.1010    7.4290 c3        1 MOL     -0.081540
     27 N3          4.7160   -3.7610    7.6720 n4        1 MOL     -0.262522
     28 H8          6.7340    1.1950    3.1690 hn        1 MOL      0.189435
     29 H9          7.9110   -1.3800    2.9460 h1        1 MOL      0.149894
     30 H10         5.2000   -0.5780    4.3500 hc        1 MOL      0.037357
     31 H11         6.7560   -0.1010    5.0250 hc        1 MOL      0.037357
     32 H12         7.2660   -2.6700    5.1070 hc        1 MOL      0.032135
     33 H13         5.5060   -2.7780    4.7080 hc        1 MOL      0.032135
     34 H14         5.0530   -1.2940    6.7020 hc        1 MOL     -0.006348
     35 H15         6.6610   -1.1390    6.9880 hc        1 MOL     -0.006348
     36 H16         6.5540   -2.9240    8.3660 hx        1 MOL      0.093612
     37 H17         6.6420   -3.7810    6.8380 hx        1 MOL      0.093612
     38 H18         4.1250   -3.2980    8.3560 hn        1 MOL      0.270131
     39 H19         4.1720   -3.8530    6.8330 hn        1 MOL      0.270131
     40 H20         4.8380   -4.6700    8.0810 hn        1 MOL      0.270131
     41 N4          5.1280   -0.9310    1.3050 n         1 MOL     -0.468438
     42 C13         4.1340   -1.5780    0.4380 c3        1 MOL      0.119477
     43 C14         4.7220   -1.8870   -0.9720 c         1 MOL      0.682586
     44 O6          5.4670   -1.0210   -1.5520 o         1 MOL     -0.475847
     45 C15         2.8770   -0.7300    0.3600 c3        1 MOL     -0.195531
     46 C16         1.6980   -1.4110   -0.3560 c         1 MOL      0.934209
     47 O7          0.8530   -2.0740    0.2390 o         1 MOL     -0.858904
     48 O8          1.6440   -1.5360   -1.6080 o         1 MOL     -0.858904
     49 H21         5.1330    0.0760    1.3160 hn        1 MOL      0.359539
     50 H22         3.8800   -2.5580    0.8490 h1        1 MOL      0.008274
     51 H23         3.2020    0.0930   -0.2850 hc        1 MOL      0.062492
     52 H24         2.5300   -0.4210    1.3440 hc        1 MOL      0.062492
     53 N5          4.4070   -3.0430   -1.5050 n         1 MOL     -0.492426
     54 C17         4.8680   -3.4810   -2.8180 c3        1 MOL     -0.064709
     55 C18         4.5480   -2.5430   -3.9780 c         1 MOL      0.341172
     56 O9          5.2950   -2.4780   -4.8970 o         1 MOL     -0.504784
     57 H25         3.9990   -3.7990   -0.9870 hn        1 MOL      0.297099
     58 H26         4.4980   -4.4890   -2.9740 h1        1 MOL      0.104680
     59 H27         5.9540   -3.6000   -2.7720 h1        1 MOL      0.104680
     60 N6          3.4160   -1.8330   -3.8980 n         1 MOL     -0.070493
     61 C19         2.9890   -0.7470   -4.8590 c3        1 MOL      0.268052
     62 C20         2.9880    0.7150   -4.2250 c         1 MOL      0.300068
     63 O10         2.6840    1.6530   -4.9480 o         1 MOL     -0.511677
     64 C21         1.6120   -1.1570   -5.3640 c3        1 MOL     -0.223658
     65 C22         1.6430   -2.4750   -6.1430 c         1 MOL      0.520122
     66 N7          1.8370   -2.4650   -7.4560 n         1 MOL     -0.712236
     67 O11         1.3880   -3.5580   -5.6230 o         1 MOL     -0.513640
     68 H28         2.9440   -1.9830   -3.0180 hn        1 MOL      0.071088
     69 H29         3.6120   -0.7470   -5.7540 h1        1 MOL      0.020197
     70 H30         1.2050   -0.3530   -5.9680 hc        1 MOL      0.060754
     71 H31         0.9650   -1.3270   -4.5030 hc        1 MOL      0.060754
     72 H32         2.0740   -1.5800   -7.8690 hn        1 MOL      0.353542
     73 H33         1.6540   -3.2850   -8.0210 hn        1 MOL      0.353542
     74 N8          3.2720    0.8350   -2.9340 n         1 MOL     -0.034604
     75 C23         3.1760    2.0870   -2.1140 c3        1 MOL     -0.126768
     76 C24         1.7390    2.5450   -1.7920 c         1 MOL      0.601323
     77 O12         0.8950    1.7620   -2.1540 o         1 MOL     -0.484512
     78 H34         3.5700   -0.0080   -2.4550 hn        1 MOL     -0.014731
     79 H35         3.6830    2.9280   -2.5790 h1        1 MOL      0.104213
     80 H36         3.8080    1.9350   -1.2380 h1        1 MOL      0.104213
     81 N9          1.4780    3.7020   -1.1620 n         1 MOL     -0.581411
     82 C25         0.1240    4.1190   -0.6950 c3        1 MOL      0.203364
     83 C26        -0.6880    3.1150    0.0950 c         1 MOL      0.441765
     84 O13        -0.1280    2.4250    0.9340 o         1 MOL     -0.533927
     85 C27         0.2640    5.6070   -0.0330 c3        1 MOL     -0.108738
     86 C28        -1.0650    6.2930    0.2870 ca        1 MOL      0.043543
     87 C29        -2.0220    6.3770   -0.7610 ca        1 MOL     -0.208790
     88 C30        -1.3940    6.7640    1.5940 ca        1 MOL     -0.208790
     89 C31        -3.3310    6.8660   -0.4930 ca        1 MOL     -0.172252
     90 C32        -2.6750    7.2150    1.8000 ca        1 MOL     -0.172252
     91 C33        -3.6540    7.3430    0.7930 ca        1 MOL      0.295506
     92 O14        -4.8240    8.0150    1.0410 oh        1 MOL     -0.518116
     93 H37         2.2110    4.3340   -0.8740 hn        1 MOL      0.327658
     94 H38        -0.3700    4.2700   -1.6610 h1        1 MOL      0.013188
     95 H39         0.8730    6.1800   -0.7320 hc        1 MOL      0.080560
     96 H40         0.8460    5.4750    0.8820 hc        1 MOL      0.080560
     97 H41        -1.7440    6.0590   -1.7580 ha        1 MOL      0.162124
     98 H42        -0.7420    6.5890    2.4300 ha        1 MOL      0.162124
     99 H43        -4.0410    6.9760   -1.2960 ha        1 MOL      0.123271
    100 H44        -2.9020    7.5630    2.7960 ha        1 MOL      0.123271
    101 H45        -4.8100    8.5430    1.8480 ho        1 MOL      0.393036
    102 N10        -1.9810    3.2390    0.1010 n         1 MOL     -0.345090
    103 C34        -2.9570    2.4530    0.8880 c3        1 MOL     -0.035769
    104 C35        -4.0020    1.8600    0.0350 c         1 MOL      0.493315
    105 O15        -4.2560    0.7050    0.1950 o         1 MOL     -0.500855
    106 C36        -3.4540    3.2190    2.1160 c3        1 MOL      0.098884
    107 C37        -2.3380    3.2780    3.1440 c3        1 MOL      0.116314
    108 C38        -4.6800    2.5120    2.7550 c3        1 MOL     -0.637292
    109 C39        -2.7030    4.1240    4.3860 c3        1 MOL     -0.372072
    110 H46        -2.4070    3.8030   -0.6130 hn        1 MOL      0.154775
    111 H47        -2.4430    1.5850    1.3050 h1        1 MOL      0.118176
    112 H48        -3.7530    4.2070    1.7990 hc        1 MOL     -0.000582
    113 H49        -1.4530    3.7720    2.7310 hc        1 MOL      0.045901
    114 H50        -2.0560    2.2650    3.4270 hc        1 MOL      0.045901
    115 H51        -5.0830    3.2590    3.4400 hc        1 MOL      0.168195
    116 H52        -5.4480    2.2430    2.0370 hc        1 MOL      0.168195
    117 H53        -4.3810    1.6140    3.3100 hc        1 MOL      0.168195
    118 H54        -3.4700    3.5600    4.9320 hc        1 MOL      0.085667
    119 H55        -1.8360    4.2040    5.0340 hc        1 MOL      0.085667
    120 H56        -2.9010    5.1420    4.0600 hc        1 MOL      0.085667
    121 N11        -4.5700    2.6110   -0.9170 n         1 MOL     -0.274066
    122 C40        -5.5310    2.1530   -1.8800 c3        1 MOL     -0.031365
    123 C41        -6.7530    1.3510   -1.3350 c         1 MOL      0.293820
    124 O16        -7.2730    0.5280   -2.0610 o         1 MOL     -0.458210
    125 C42        -6.0530    3.3810   -2.6600 c3        1 MOL      0.232174
    126 O17        -5.0660    4.2420   -3.1310 oh        1 MOL     -0.596195
    127 H57        -4.3700    3.5920   -1.0290 hn        1 MOL      0.238760
    128 H58        -5.0440    1.4490   -2.5610 h1        1 MOL      0.106269
    129 H59        -6.7710    3.9600   -2.0830 h1        1 MOL     -0.000670
    130 H60        -6.6500    2.9830   -3.4840 h1        1 MOL     -0.000670
    131 H61        -5.5130    4.8950   -3.6690 ho        1 MOL      0.420430
    132 N12        -7.0950    1.5860   -0.0750 n         1 MOL     -0.101283
    133 C43        -8.0830    0.8970    0.7300 c3        1 MOL      0.107434
    134 C44        -8.0860   -0.6280    0.5610 c         1 MOL      0.501728
    135 O18        -9.1450   -1.2270    0.4650 o         1 MOL     -0.504579
    136 C45        -9.5010    1.4250    0.3210 c3        1 MOL     -0.387154
    137 H62        -6.6830    2.4500    0.2290 hn        1 MOL      0.168669
    138 H63        -7.7870    1.2280    1.7270 h1        1 MOL      0.054062
    139 H64        -9.4100    2.5100    0.3290 hc        1 MOL      0.110898
    140 H65        -9.8270    1.0160   -0.6330 hc        1 MOL      0.110898
    141 H66       -10.2410    1.1270    1.0720 hc        1 MOL      0.110898
    142 N13        -6.9130   -1.2600    0.5600 n         1 MOL     -0.560442
    143 C46        -6.7220   -2.6720    0.4430 c3        1 MOL      0.523569
    144 C47        -5.5130   -3.1470    1.3150 c         1 MOL      0.282279
    145 O19        -4.5830   -2.4070    1.6140 o         1 MOL     -0.408302
    146 C48        -6.4880   -2.9910   -1.0470 c3        1 MOL     -0.454175
    147 H67        -6.1080   -0.6540    0.4930 hn        1 MOL      0.215066
    148 H68        -7.6160   -3.1650    0.8320 h1        1 MOL     -0.022492
    149 H69        -7.2300   -2.4720   -1.6540 hc        1 MOL      0.121346
    150 H70        -5.5370   -2.5980   -1.4250 hc        1 MOL      0.121346
    151 H71        -6.5020   -4.0740   -1.1900 hc        1 MOL      0.121346
    152 N14        -5.5340   -4.3700    1.8190 n         1 MOL     -0.473623
    153 C49        -4.4630   -4.9950    2.6340 c3        1 MOL      0.072391
    154 C50        -4.2790   -4.2700    3.9720 c         1 MOL      0.414382
    155 O20        -3.1940   -4.1480    4.5580 o         1 MOL     -0.511173
    156 C51        -3.1250   -5.1810    1.9030 c3        1 MOL      0.172514
    157 C52        -3.3790   -5.6770    0.4450 c3        1 MOL     -0.034306
    158 C53        -2.0600   -5.9310   -0.2990 c         1 MOL      0.650759
    159 O21        -1.7920   -7.1170   -0.6040 o         1 MOL     -0.699907
    160 O22        -1.2060   -5.0550   -0.5050 o         1 MOL     -0.699907
    161 H72        -6.2570   -5.0260    1.5520 hn        1 MOL      0.285194
    162 H73        -4.7740   -5.9880    2.9300 h1        1 MOL      0.055339
    163 H74        -2.5490   -5.8710    2.5200 hc        1 MOL     -0.021703
    164 H75        -2.6390   -4.2100    1.8310 hc        1 MOL     -0.021703
    165 H76        -3.8300   -4.8770   -0.1460 hc        1 MOL     -0.040569
    166 H77        -3.8720   -6.6490    0.5240 hc        1 MOL     -0.040569
    167 N15        -5.3740   -3.7970    4.4750 n         1 MOL     -0.290892
    168 C54        -5.4910   -2.9140    5.6990 c3        1 MOL     -0.114219
    169 H78        -6.0070   -3.4560    6.4900 h1        1 MOL      0.082612
    170 H79        -4.4950   -2.6340    6.0410 h1        1 MOL      0.082612
    171 H80        -6.0550   -2.0160    5.4470 h1        1 MOL      0.082612
    172 H81        -6.2950   -3.9770    4.0980 hn        1 MOL      0.236226
    173 Ca1        -0.6910   -2.8250   -1.6720 Ca        1 MOL      1.766253
    174 O23        -1.0320   -0.4600   -2.5750 oh        1 MOL     -0.819336
    175 H82        -0.4300    0.2730   -2.4850 ho        1 MOL      0.402072
    176 H83        -1.7920   -0.0930   -3.0240 ho        1 MOL      0.402072
    177 O24        -2.4380   -2.0460    0.1080 oh        1 MOL     -0.819336
    178 H84        -2.7730   -1.1760    0.3010 ho        1 MOL      0.402072
    179 H85        -2.8540   -2.6190    0.7560 ho        1 MOL      0.402072
    180 O25        -3.2730   -3.7720   -2.4480 oh        1 MOL     -0.819336
    181 H86        -3.5770   -3.1910   -3.1530 ho        1 MOL      0.402072
    182 H87        -3.9630   -4.4210   -2.3590 ho        1 MOL      0.402072
    183 O26        -1.1010   -3.0580   -4.2430 oh        1 MOL     -0.819336
    184 H88        -0.4710   -3.6270   -4.6790 ho        1 MOL      0.402072
    185 H89        -1.7460   -2.8490   -4.9260 ho        1 MOL      0.402072
    186 O27         1.0790   -4.4440   -2.7930 oh        1 MOL     -0.819336
    187 H90         2.0160   -4.3280   -2.6200 ho        1 MOL      0.402072
    188 H91         0.9950   -5.3620   -3.0370 ho        1 MOL      0.402072
@<TRIPOS>BOND
     1    1    2 1   
     2    1    4 1   
     3    1    5 1   
     4    1    6 1   
     5    2    3 2   
     6    2    7 1   
     7    7    8 1   
     8    7   15 1   
     9    8    9 1   
    10    8   11 1   
    11    8   16 1   
    12    9   10 2   
    13    9   19 1   
    14   11   12 1   
    15   11   17 1   
    16   11   18 1   
    17   12   13 1   
    18   12   14 1   
    19   19   20 1   
    20   19   28 1   
    21   20   21 1   
    22   20   23 1   
    23   20   29 1   
    24   21   22 2   
    25   21   41 1   
    26   23   24 1   
    27   23   30 1   
    28   23   31 1   
    29   24   25 1   
    30   24   32 1   
    31   24   33 1   
    32   25   26 1   
    33   25   34 1   
    34   25   35 1   
    35   26   27 1   
    36   26   36 1   
    37   26   37 1   
    38   27   38 1   
    39   27   39 1   
    40   27   40 1   
    41   41   42 1   
    42   41   49 1   
    43   42   43 1   
    44   42   45 1   
    45   42   50 1   
    46   43   44 2   
    47   43   53 1   
    48   45   46 1   
    49   45   51 1   
    50   45   52 1   
    51   46   47 1   
    52   46   48 1   
    53   53   54 1   
    54   53   57 1   
    55   54   55 1   
    56   54   58 1   
    57   54   59 1   
    58   55   56 2   
    59   55   60 1   
    60   60   61 1   
    61   60   68 1   
    62   61   62 1   
    63   61   64 1   
    64   61   69 1   
    65   62   63 2   
    66   62   74 1   
    67   64   65 1   
    68   64   70 1   
    69   64   71 1   
    70   65   66 1   
    71   65   67 2   
    72   66   72 1   
    73   66   73 1   
    74   74   75 1   
    75   74   78 1   
    76   75   76 1   
    77   75   79 1   
    78   75   80 1   
    79   76   77 2   
    80   76   81 1   
    81   81   82 1   
    82   81   93 1   
    83   82   83 1   
    84   82   85 1   
    85   82   94 1   
    86   83   84 2   
    87   83  102 1   
    88   85   86 1   
    89   85   95 1   
    90   85   96 1   
    91   86   87 ar  
    92   86   88 ar  
    93   87   89 ar  
    94   87   97 1   
    95   88   90 ar  
    96   88   98 1   
    97   89   91 ar  
    98   89   99 1   
    99   90   91 ar  
   100   90  100 1   
   101   91   92 1   
   102   92  101 1   
   103  102  103 1   
   104  102  110 1   
   105  103  104 1   
   106  103  106 1   
   107  103  111 1   
   108  104  105 2   
   109  104  121 1   
   110  106  107 1   
   111  106  108 1   
   112  106  112 1   
   113  107  109 1   
   114  107  113 1   
   115  107  114 1   
   116  108  115 1   
   117  108  116 1   
   118  108  117 1   
   119  109  118 1   
   120  109  119 1   
   121  109  120 1   
   122  121  122 1   
   123  121  127 1   
   124  122  123 1   
   125  122  125 1   
   126  122  128 1   
   127  123  124 2   
   128  123  132 1   
   129  125  126 1   
   130  125  129 1   
   131  125  130 1   
   132  126  131 1   
   133  132  133 1   
   134  132  137 1   
   135  133  134 1   
   136  133  136 1   
   137  133  138 1   
   138  134  135 2   
   139  134  142 1   
   140  136  139 1   
   141  136  140 1   
   142  136  141 1   
   143  142  143 1   
   144  142  147 1   
   145  143  144 1   
   146  143  146 1   
   147  143  148 1   
   148  144  145 2   
   149  144  152 1   
   150  146  149 1   
   151  146  150 1   
   152  146  151 1   
   153  152  153 1   
   154  152  161 1   
   155  153  154 1   
   156  153  156 1   
   157  153  162 1   
   158  154  155 2   
   159  154  167 1   
   160  156  157 1   
   161  156  163 1   
   162  156  164 1   
   163  157  158 1   
   164  157  165 1   
   165  157  166 1   
   166  158  159 1   
   167  158  160 1   
   168  167  168 1   
   169  167  172 1   
   170  168  169 1   
   171  168  170 1   
   172  168  171 1   
   173  174  175 1   
   174  174  176 1   
   175  177  178 1   
   176  177  179 1   
   177  180  181 1   
   178  180  182 1   
   179  183  184 1   
   180  183  185 1   
   181  186  187 1   
   182  186  188 1   
@<TRIPOS>SUBSTRUCTURE
     1 MOL         1 TEMP              0 ****  ****    0 ROOT
