@<TRIPOS>MOLECULE
MOL
  189   185     1     0     0
SMALL
resp


@<TRIPOS>ATOM
      1 C1          8.8400    0.9210    2.7630 c3        1 MOL     -0.592515
      2 C2          7.7850    0.8930    1.5690 c         1 MOL      0.775033
      3 O1          6.6360    1.1460    1.7700 o         1 MOL     -0.658912
      4 H1          8.7670   -0.0050    3.3330 hc        1 MOL      0.140299
      5 H2          9.8470    1.0190    2.3570 hc        1 MOL      0.140299
      6 H3          8.6270    1.7670    3.4160 hc        1 MOL      0.140299
      7 N1          8.2680    0.5790    0.3720 n         1 MOL     -0.275850
      8 C3          7.4940    0.7850   -0.8550 c3        1 MOL     -0.299433
      9 C4          6.7850   -0.5090   -1.2930 c         1 MOL      0.486746
     10 O2          6.3440   -0.6490   -2.4610 o         1 MOL     -0.409315
     11 C5          8.3580    1.4270   -2.0090 c3        1 MOL     -0.095555
     12 C6          9.6980    0.6900   -2.2920 c         1 MOL      0.713184
     13 O3         10.3950    0.9810   -3.2810 o         1 MOL     -0.659356
     14 O4         10.0610   -0.1990   -1.4490 o         1 MOL     -0.659356
     15 H4          9.2230    0.2910    0.2290 hn        1 MOL      0.164551
     16 H5          6.6810    1.5010   -0.7220 h1        1 MOL      0.194965
     17 H6          8.6130    2.4710   -1.8260 hc        1 MOL      0.052351
     18 H7          7.9090    1.4270   -3.0070 hc        1 MOL      0.052351
     19 N2          6.7410   -1.5010   -0.3680 n         1 MOL     -0.238700
     20 C7          6.4120   -2.8670   -0.6650 c3        1 MOL      0.166670
     21 C8          4.9710   -3.0120   -1.2570 c         1 MOL      0.193185
     22 O5          4.9070   -3.6460   -2.3350 o         1 MOL     -0.496255
     23 C9          6.7870   -3.9320    0.4210 c3        1 MOL      0.042084
     24 C10         8.0450   -3.5500    1.1320 c3        1 MOL      0.316481
     25 C11         8.4850   -4.5790    2.1100 c3        1 MOL     -0.284920
     26 C12         9.7970   -4.1320    2.8810 c3        1 MOL      0.138934
     27 N3         10.1440   -5.1500    3.8820 n4        1 MOL     -0.224556
     28 H8          7.1800   -1.4020    0.5330 hn        1 MOL      0.062241
     29 H9          7.0810   -3.1500   -1.4800 h1        1 MOL      0.041421
     30 H10         6.9770   -4.8870   -0.0650 hc        1 MOL     -0.019903
     31 H11         5.9550   -4.0310    1.1170 hc        1 MOL     -0.019903
     32 H12         7.8130   -2.6690    1.7310 hc        1 MOL     -0.044280
     33 H13         8.8220   -3.3330    0.4090 hc        1 MOL     -0.044280
     34 H14         8.6660   -5.4760    1.5390 hc        1 MOL      0.074613
     35 H15         7.6880   -4.7890    2.8220 hc        1 MOL      0.074613
     36 H16         9.7930   -3.1840    3.4230 hx        1 MOL      0.058416
     37 H17        10.5970   -4.0360    2.1540 hx        1 MOL      0.058416
     38 H18        10.9850   -4.8520    4.3470 hn        1 MOL      0.256773
     39 H19         9.3970   -5.3650    4.5310 hn        1 MOL      0.256773
     40 H20        10.4900   -6.0300    3.5050 hn        1 MOL      0.256773
     41 N4          3.8530   -2.5140   -0.7140 n         1 MOL     -0.077332
     42 C13         3.6780   -1.7100    0.4580 c3        1 MOL     -0.055414
     43 C14         3.4070   -0.2670    0.0830 c         1 MOL      0.316810
     44 O6          3.0070   -0.0710   -1.0980 o         1 MOL     -0.381487
     45 C15         2.5700   -2.3380    1.3030 c3        1 MOL     -0.406587
     46 C16         1.2290   -2.7210    0.6550 c         1 MOL      0.762815
     47 O7          0.9450   -2.3550   -0.4890 o         1 MOL     -0.656905
     48 O8          0.4060   -3.3940    1.3230 o         1 MOL     -0.656905
     49 H21         3.0030   -2.8760   -1.1000 hn        1 MOL      0.208529
     50 H22         4.5430   -1.7620    1.1270 h1        1 MOL      0.130679
     51 H23         2.2940   -1.6630    2.1150 hc        1 MOL      0.101171
     52 H24         2.9960   -3.1750    1.8620 hc        1 MOL      0.101171
     53 N5          3.5930    0.7220    1.0710 n         1 MOL     -0.504565
     54 C17         3.5840    2.1600    0.6770 c3        1 MOL      0.230383
     55 C18         2.3810    2.6470   -0.1780 c         1 MOL      0.417105
     56 O9          1.2960    2.0090   -0.2410 o         1 MOL     -0.598583
     57 H25         4.0490    0.4540    1.9320 hn        1 MOL      0.333626
     58 H26         4.4850    2.4650    0.1560 h1        1 MOL      0.022384
     59 H27         3.5480    2.8320    1.5460 h1        1 MOL      0.022384
     60 N6          2.6140    3.7640   -0.8430 n         1 MOL     -0.433731
     61 C19         1.6480    4.3830   -1.7260 c3        1 MOL      0.203648
     62 C20         1.4470    5.9090   -1.6210 c         1 MOL      0.479293
     63 O10         2.4080    6.6390   -1.5890 o         1 MOL     -0.533580
     64 C21         1.9310    3.9820   -3.2210 c3        1 MOL     -0.273158
     65 C22         2.0200    2.4590   -3.4170 c         1 MOL      0.752911
     66 O11         0.9390    1.8320   -3.2520 o         1 MOL     -0.679363
     67 O12         3.0890    1.9280   -3.7550 o         1 MOL     -0.679363
     68 H28         3.5110    4.2170   -0.7930 hn        1 MOL      0.295742
     69 H29         0.6280    4.0440   -1.5510 h1        1 MOL      0.031088
     70 H30         2.8280    4.5020   -3.5400 hc        1 MOL      0.069764
     71 H31         1.1160    4.2930   -3.8860 hc        1 MOL      0.069764
     72 N7          0.2410    6.4830   -1.6590 n         1 MOL     -0.477258
     73 C23        -1.0800    5.8590   -1.6340 c3        1 MOL      0.011566
     74 C24        -1.4320    5.2530   -0.3100 c         1 MOL      0.489547
     75 O13        -0.6020    5.3280    0.6090 o         1 MOL     -0.476822
     76 H32         0.1060    7.4670   -1.4720 hn        1 MOL      0.322182
     77 H33        -1.2160    5.0640   -2.3630 h1        1 MOL      0.054732
     78 H34        -1.8070    6.6110   -1.9410 h1        1 MOL      0.054732
     79 N8         -2.6350    4.7820   -0.1530 n         1 MOL     -0.303407
     80 C25        -3.3020    4.3890    1.0750 c3        1 MOL     -0.000515
     81 C26        -2.8130    2.9830    1.5260 c         1 MOL      0.277392
     82 O14        -3.5680    2.0340    1.4710 o         1 MOL     -0.365618
     83 C27        -4.8140    4.5580    1.1220 c3        1 MOL      0.271364
     84 C28        -5.3940    3.7270    0.0040 c3        1 MOL     -0.374426
     85 O15        -5.0940    5.9710    0.9380 oh        1 MOL     -0.623542
     86 H35        -3.1780    4.6460   -0.9910 hn        1 MOL      0.262481
     87 H36        -2.9750    5.0860    1.8460 h1        1 MOL      0.059151
     88 H37        -5.1850    4.1690    2.0740 h1        1 MOL      0.031182
     89 H38        -5.9560    6.1650    1.3270 ho        1 MOL      0.401254
     90 H39        -6.3350    3.2930    0.3510 hc        1 MOL      0.109346
     91 H40        -5.5180    4.3860   -0.8510 hc        1 MOL      0.109346
     92 H41        -4.7860    3.0090   -0.5440 hc        1 MOL      0.109346
     93 N9         -1.5740    2.9680    1.9770 n         1 MOL     -0.160233
     94 C29        -0.8950    1.9960    2.8490 c3        1 MOL     -0.252593
     95 C30        -1.0600    0.6090    2.2010 c         1 MOL      0.373916
     96 O16        -0.4420    0.1920    1.1840 o         1 MOL     -0.393166
     97 C31         0.6120    2.4050    3.2070 c3        1 MOL     -0.019585
     98 C32         0.8050    3.6840    3.9970 c3        1 MOL      0.196768
     99 C33         1.1540    1.2880    4.0170 c3        1 MOL     -0.302879
    100 C34         2.2810    4.0290    4.2670 c3        1 MOL     -0.351641
    101 H42        -1.0570    3.8270    1.8290 hn        1 MOL      0.213925
    102 H43        -1.2810    1.9390    3.8680 h1        1 MOL      0.088924
    103 H44         1.1400    2.3370    2.2620 hc        1 MOL      0.149504
    104 H45         0.1990    3.6420    4.9000 hc        1 MOL     -0.022347
    105 H46         0.3860    4.4980    3.4150 hc        1 MOL     -0.022347
    106 H47         0.9300    0.3310    3.5400 hc        1 MOL      0.082191
    107 H48         2.2450    1.3450    4.0940 hc        1 MOL      0.082191
    108 H49         0.8330    1.3440    5.0540 hc        1 MOL      0.082191
    109 H50         2.3020    5.1130    4.3440 hc        1 MOL      0.090127
    110 H51         2.5820    3.6680    5.2540 hc        1 MOL      0.090127
    111 H52         2.8560    3.9020    3.3450 hc        1 MOL      0.090127
    112 N10        -1.9470   -0.0910    2.8520 n         1 MOL     -0.027688
    113 C35        -2.3810   -1.4980    2.5700 c3        1 MOL     -0.280573
    114 C36        -3.8810   -1.7460    2.3270 c         1 MOL      0.543162
    115 O17        -4.2410   -2.8880    2.0680 o         1 MOL     -0.574926
    116 C37        -1.8890   -2.5100    3.6840 c3        1 MOL      0.394094
    117 C38        -2.3850   -2.1340    5.0520 c3        1 MOL     -0.128496
    118 O18        -0.5260   -2.4710    3.7010 oh        1 MOL     -0.561838
    119 H53        -2.4440    0.3930    3.5940 hn        1 MOL      0.202778
    120 H54        -1.9700   -1.8440    1.6320 h1        1 MOL      0.113623
    121 H55        -2.2710   -3.5080    3.4320 h1        1 MOL      0.002168
    122 H56        -0.3520   -2.8900    2.8500 ho        1 MOL      0.305056
    123 H57        -3.4520   -1.8990    4.9580 hc        1 MOL      0.013391
    124 H58        -2.2370   -2.9290    5.7770 hc        1 MOL      0.013391
    125 H59        -1.8000   -1.2610    5.3690 hc        1 MOL      0.013391
    126 N11        -4.7460   -0.6710    2.1730 n         1 MOL     -0.103040
    127 C39        -6.2130   -0.7070    1.8810 c3        1 MOL     -0.251666
    128 C40        -6.4620   -1.1010    0.4220 c         1 MOL      0.317968
    129 O19        -6.3460   -0.3020   -0.5030 o         1 MOL     -0.441885
    130 C41        -6.8630    0.6400    2.2380 c3        1 MOL      0.589634
    131 C42        -8.3880    0.6310    2.2280 c3        1 MOL     -0.425655
    132 O20        -6.5740    1.0230    3.5810 oh        1 MOL     -0.671241
    133 H60        -4.3450    0.2560    2.2500 hn        1 MOL      0.058807
    134 H61        -6.6750   -1.4800    2.4830 h1        1 MOL      0.100801
    135 H62        -6.4590    1.3990    1.5680 h1        1 MOL     -0.060284
    136 H63        -6.8580    1.9290    3.7290 ho        1 MOL      0.397385
    137 H64        -8.7690    1.6440    2.3470 hc        1 MOL      0.095230
    138 H65        -8.7370    0.1410    1.3240 hc        1 MOL      0.095230
    139 H66        -8.7150    0.0780    3.1090 hc        1 MOL      0.095230
    140 N12        -6.6280   -2.3740    0.2570 n         1 MOL     -0.171092
    141 C43        -6.9580   -3.0110   -1.0620 c3        1 MOL      0.057259
    142 C44        -5.8810   -2.7530   -2.1090 c         1 MOL      0.400992
    143 O21        -6.0910   -2.1210   -3.1480 o         1 MOL     -0.461786
    144 C45        -8.3350   -2.5300   -1.5710 c3        1 MOL     -0.217327
    145 C46        -9.3800   -2.1450   -0.5750 c3        1 MOL      0.160383
    146 C47       -10.7620   -2.3560   -1.1120 c3        1 MOL      0.022264
    147 C48       -11.8300   -2.1170   -0.0640 c3        1 MOL      0.125875
    148 N13       -13.2020   -2.1740   -0.7100 n4        1 MOL     -0.317115
    149 H67        -6.6330   -2.9300    1.1090 hn        1 MOL      0.214425
    150 H68        -6.9830   -4.0870   -0.9140 h1        1 MOL      0.042326
    151 H69        -8.7890   -3.3090   -2.1800 hc        1 MOL      0.087336
    152 H70        -8.2240   -1.7460   -2.3310 hc        1 MOL      0.087336
    153 H71        -9.2450   -1.1030   -0.2900 hc        1 MOL     -0.036320
    154 H72        -9.2520   -2.7920    0.2860 hc        1 MOL     -0.036320
    155 H73       -10.9150   -3.3860   -1.4170 hc        1 MOL     -0.002325
    156 H74       -10.9290   -1.7330   -1.9950 hc        1 MOL     -0.002325
    157 H75       -11.7480   -1.1190    0.3610 hx        1 MOL      0.036039
    158 H76       -11.7590   -2.7550    0.8150 hx        1 MOL      0.036039
    159 H77       -13.8430   -2.0420    0.0620 hn        1 MOL      0.254285
    160 H78       -13.2510   -1.4970   -1.4570 hn        1 MOL      0.254285
    161 H79       -13.3140   -3.0500   -1.2000 hn        1 MOL      0.254285
    162 N14        -4.7030   -3.0990   -1.6820 n         1 MOL     -0.410225
    163 C49        -3.4620   -2.5850   -2.1920 c3        1 MOL      0.047311
    164 C50        -2.3070   -2.5900   -1.1010 c         1 MOL      0.691537
    165 O22        -1.8080   -1.4580   -0.8660 o         1 MOL     -0.737037
    166 C51        -3.0250   -3.3910   -3.4980 c3        1 MOL     -0.167253
    167 C52        -1.9260   -2.6230   -4.2550 c3        1 MOL      0.083670
    168 C53        -2.0800   -1.1100   -4.3920 c         1 MOL      0.647139
    169 O23        -1.3750   -0.3470   -3.6830 o         1 MOL     -0.647531
    170 O24        -3.0010   -0.7160   -5.1830 o         1 MOL     -0.647531
    171 H80        -4.6710   -3.5550   -0.7900 hn        1 MOL      0.242927
    172 H81        -3.6830   -1.5600   -2.4760 h1        1 MOL      0.165207
    173 H82        -3.9320   -3.4540   -4.1000 hc        1 MOL      0.059011
    174 H83        -2.8190   -4.4510   -3.3990 hc        1 MOL      0.059011
    175 H84        -1.8640   -3.0380   -5.2550 hc        1 MOL     -0.042153
    176 H85        -0.9680   -2.7270   -3.7360 hc        1 MOL     -0.042153
    177 N15        -1.9320   -3.6680   -0.4770 n         1 MOL     -0.345212
    178 C54        -2.0170   -5.0870   -0.9290 c3        1 MOL     -0.211829
    179 H86        -2.8460   -5.5800   -0.4210 h1        1 MOL      0.090844
    180 H87        -2.1830   -5.1170   -2.0060 h1        1 MOL      0.090844
    181 H88        -1.0870   -5.6020   -0.6890 h1        1 MOL      0.090844
    182 H89        -1.2170   -3.5330    0.2200 hn        1 MOL      0.323100
    183 Ca1         0.4330   -0.0620   -1.5760 Ca        1 MOL      1.700710
    184 O25        -1.8090    1.3370   -1.1500 oh        1 MOL     -0.872410
    185 H90        -2.3140    1.9180   -1.7290 ho        1 MOL      0.421779
    186 H91        -2.4580    0.9580   -0.5620 ho        1 MOL      0.421779
    187 O26         1.3980   -1.6170   -3.5450 oh        1 MOL     -0.872410
    188 H92         2.3440   -1.4810   -3.6050 ho        1 MOL      0.421779
    189 H93         1.2640   -2.5120   -3.8530 ho        1 MOL      0.421779
@<TRIPOS>BOND
     1    1    2 1   
     2    1    4 1   
     3    1    5 1   
     4    1    6 1   
     5    2    3 2   
     6    2    7 1   
     7    7    8 1   
     8    7   15 1   
     9    8    9 1   
    10    8   11 1   
    11    8   16 1   
    12    9   10 2   
    13    9   19 1   
    14   11   12 1   
    15   11   17 1   
    16   11   18 1   
    17   12   13 1   
    18   12   14 1   
    19   19   20 1   
    20   19   28 1   
    21   20   21 1   
    22   20   23 1   
    23   20   29 1   
    24   21   22 2   
    25   21   41 1   
    26   23   24 1   
    27   23   30 1   
    28   23   31 1   
    29   24   25 1   
    30   24   32 1   
    31   24   33 1   
    32   25   26 1   
    33   25   34 1   
    34   25   35 1   
    35   26   27 1   
    36   26   36 1   
    37   26   37 1   
    38   27   38 1   
    39   27   39 1   
    40   27   40 1   
    41   41   42 1   
    42   41   49 1   
    43   42   43 1   
    44   42   45 1   
    45   42   50 1   
    46   43   44 2   
    47   43   53 1   
    48   45   46 1   
    49   45   51 1   
    50   45   52 1   
    51   46   47 1   
    52   46   48 1   
    53   53   54 1   
    54   53   57 1   
    55   54   55 1   
    56   54   58 1   
    57   54   59 1   
    58   55   56 2   
    59   55   60 1   
    60   60   61 1   
    61   60   68 1   
    62   61   62 1   
    63   61   64 1   
    64   61   69 1   
    65   62   63 2   
    66   62   72 1   
    67   64   65 1   
    68   64   70 1   
    69   64   71 1   
    70   65   66 1   
    71   65   67 1   
    72   72   73 1   
    73   72   76 1   
    74   73   74 1   
    75   73   77 1   
    76   73   78 1   
    77   74   75 2   
    78   74   79 1   
    79   79   80 1   
    80   79   86 1   
    81   80   81 1   
    82   80   83 1   
    83   80   87 1   
    84   81   82 2   
    85   81   93 1   
    86   83   84 1   
    87   83   85 1   
    88   83   88 1   
    89   84   90 1   
    90   84   91 1   
    91   84   92 1   
    92   85   89 1   
    93   93   94 1   
    94   93  101 1   
    95   94   95 1   
    96   94   97 1   
    97   94  102 1   
    98   95   96 2   
    99   95  112 1   
   100   97   98 1   
   101   97   99 1   
   102   97  103 1   
   103   98  100 1   
   104   98  104 1   
   105   98  105 1   
   106   99  106 1   
   107   99  107 1   
   108   99  108 1   
   109  100  109 1   
   110  100  110 1   
   111  100  111 1   
   112  112  113 1   
   113  112  119 1   
   114  113  114 1   
   115  113  116 1   
   116  113  120 1   
   117  114  115 2   
   118  114  126 1   
   119  116  117 1   
   120  116  118 1   
   121  116  121 1   
   122  117  123 1   
   123  117  124 1   
   124  117  125 1   
   125  118  122 1   
   126  126  127 1   
   127  126  133 1   
   128  127  128 1   
   129  127  130 1   
   130  127  134 1   
   131  128  129 2   
   132  128  140 1   
   133  130  131 1   
   134  130  132 1   
   135  130  135 1   
   136  131  137 1   
   137  131  138 1   
   138  131  139 1   
   139  132  136 1   
   140  140  141 1   
   141  140  149 1   
   142  141  142 1   
   143  141  144 1   
   144  141  150 1   
   145  142  143 2   
   146  142  162 1   
   147  144  145 1   
   148  144  151 1   
   149  144  152 1   
   150  145  146 1   
   151  145  153 1   
   152  145  154 1   
   153  146  147 1   
   154  146  155 1   
   155  146  156 1   
   156  147  148 1   
   157  147  157 1   
   158  147  158 1   
   159  148  159 1   
   160  148  160 1   
   161  148  161 1   
   162  162  163 1   
   163  162  171 1   
   164  163  164 1   
   165  163  166 1   
   166  163  172 1   
   167  164  165 2   
   168  164  177 1   
   169  166  167 1   
   170  166  173 1   
   171  166  174 1   
   172  167  168 1   
   173  167  175 1   
   174  167  176 1   
   175  168  169 1   
   176  168  170 1   
   177  177  178 1   
   178  177  182 1   
   179  178  179 1   
   180  178  180 1   
   181  178  181 1   
   182  184  185 1   
   183  184  186 1   
   184  187  188 1   
   185  187  189 1   
@<TRIPOS>SUBSTRUCTURE
     1 MOL         1 TEMP              0 ****  ****    0 ROOT
