@<TRIPOS>MOLECULE
MOL
  189   185     1     0     0
SMALL
resp


@<TRIPOS>ATOM
      1 C1          4.7020    4.6800   -2.3300 c3        1 MOL     -0.319403
      2 C2          5.4940    3.6210   -1.4760 c         1 MOL      0.767246
      3 O1          4.9770    3.0330   -0.4980 o         1 MOL     -0.711349
      4 H1          4.0200    4.1640   -3.0060 hc        1 MOL      0.084564
      5 H2          4.1320    5.3300   -1.6670 hc        1 MOL      0.084564
      6 H3          5.4050    5.2780   -2.9110 hc        1 MOL      0.084564
      7 N1          6.7490    3.2400   -1.8600 n         1 MOL     -0.654507
      8 C3          7.3680    2.0230   -1.4770 c3        1 MOL      0.050480
      9 C4          6.3930    0.8670   -1.3630 c         1 MOL      0.412673
     10 O2          6.0250    0.3480   -0.3330 o         1 MOL     -0.505247
     11 C5          8.2810    2.1890   -0.2200 c3        1 MOL      0.179555
     12 C6          7.7460    3.0280    0.9180 c         1 MOL      0.738009
     13 O3          6.9430    2.4960    1.6820 o         1 MOL     -0.754628
     14 O4          8.2640    4.1180    1.0620 o         1 MOL     -0.754628
     15 H4          7.2290    3.7800   -2.5660 hn        1 MOL      0.341076
     16 H5          7.9760    1.6880   -2.3090 h1        1 MOL      0.044985
     17 H6          9.1940    2.6840   -0.5580 hc        1 MOL     -0.055866
     18 H7          8.6470    1.2260    0.1420 hc        1 MOL     -0.055866
     19 N2          5.9120    0.4460   -2.5250 n         1 MOL     -0.397569
     20 C7          5.0970   -0.7220   -2.8970 c3        1 MOL      0.037758
     21 C8          5.5710   -2.1040   -2.5050 c         1 MOL      0.330768
     22 O5          5.6640   -3.0310   -3.3210 o         1 MOL     -0.522806
     23 C9          3.5880   -0.5620   -2.5210 c3        1 MOL      0.337454
     24 C10         2.5740   -1.6350   -3.0090 c3        1 MOL     -0.169248
     25 C11         3.0690    0.8220   -2.9820 c3        1 MOL     -0.349590
     26 C12         2.4710   -1.9310   -4.4700 c3        1 MOL     -0.132450
     27 H8          5.9440    1.0850   -3.3110 hn        1 MOL      0.260369
     28 H9          5.2100   -0.7870   -3.9770 h1        1 MOL      0.044110
     29 H10         3.5090   -0.5110   -1.4310 hc        1 MOL     -0.070512
     30 H11         1.5900   -1.3800   -2.6020 hc        1 MOL      0.112905
     31 H12         2.7880   -2.5940   -2.5320 hc        1 MOL      0.112905
     32 H13         2.0700    0.7290   -2.5470 hc        1 MOL      0.061549
     33 H14         3.5460    1.6700   -2.4930 hc        1 MOL      0.061549
     34 H15         3.0070    0.8650   -4.0690 hc        1 MOL      0.061549
     35 H16         1.5090   -2.3840   -4.6870 hc        1 MOL      0.018780
     36 H17         2.4450   -1.0230   -5.0680 hc        1 MOL      0.018780
     37 H18         3.2950   -2.5530   -4.7990 hc        1 MOL      0.018780
     38 N3          6.1400   -2.2650   -1.3390 n         1 MOL     -0.145636
     39 C13         6.7830   -3.4540   -0.7820 c3        1 MOL      0.156971
     40 C14         5.9610   -4.7570   -0.9120 c         1 MOL      0.504267
     41 O6          6.3810   -5.7710   -1.4480 o         1 MOL     -0.575620
     42 C15         7.2700   -3.1930    0.6090 c3        1 MOL     -0.356268
     43 C16         8.3810   -2.1520    0.6670 c         1 MOL      0.812606
     44 O7          9.1340   -1.9520   -0.3350 o         1 MOL     -0.730459
     45 O8          8.4950   -1.6120    1.7860 o         1 MOL     -0.730459
     46 H19         6.0150   -1.4520   -0.7550 hn        1 MOL      0.229057
     47 H20         7.6340   -3.6820   -1.4340 h1        1 MOL      0.013742
     48 H21         7.5590   -4.0810    1.1600 hc        1 MOL      0.094898
     49 H22         6.4100   -2.6660    1.0290 hc        1 MOL      0.094898
     50 N4          4.6480   -4.8290   -0.5260 n         1 MOL     -0.461545
     51 C17         3.8640   -3.8240    0.2140 c3        1 MOL      0.014327
     52 C18         2.4690   -4.3690    0.6060 c         1 MOL      0.679810
     53 O9          1.9880   -5.2750   -0.0150 o         1 MOL     -0.582024
     54 H23         4.1750   -5.6900   -0.7680 hn        1 MOL      0.290225
     55 H24         3.7700   -3.0020   -0.4930 h1        1 MOL     -0.029102
     56 H25         4.4330   -3.4210    1.0480 h1        1 MOL     -0.029102
     57 N5          1.8160   -3.9170    1.6720 n         1 MOL     -0.543629
     58 C19         2.0770   -2.6730    2.4640 c3        1 MOL      0.289133
     59 C20         2.2040   -1.3120    1.6180 c         1 MOL      0.529827
     60 O10         3.3700   -0.8840    1.4000 o         1 MOL     -0.645777
     61 C21         3.1740   -2.8790    3.5170 c3        1 MOL     -0.388821
     62 C22         3.0170   -4.0220    4.5250 c         1 MOL      0.732177
     63 O11         3.9530   -4.0520    5.3840 o         1 MOL     -0.720154
     64 O12         1.9970   -4.7330    4.6740 o         1 MOL     -0.720154
     65 H26         1.0630   -4.4600    2.0570 hn        1 MOL      0.291820
     66 H27         1.1600   -2.5960    3.0300 h1        1 MOL      0.021265
     67 H28         3.3290   -1.9440    4.0600 hc        1 MOL      0.091994
     68 H29         4.1760   -2.9510    3.0900 hc        1 MOL      0.091994
     69 N6          1.2270   -0.6640    0.9950 n         1 MOL     -0.360535
     70 C23        -0.1960   -0.9930    1.0350 c3        1 MOL      0.040660
     71 C24        -0.6500   -1.9590   -0.0240 c         1 MOL      0.474125
     72 O13         0.0180   -2.2190   -1.0320 o         1 MOL     -0.506646
     73 H30         1.5180    0.0400    0.3350 hn        1 MOL      0.237349
     74 H31        -0.8230   -0.1090    1.1550 h1        1 MOL      0.028011
     75 H32        -0.4470   -1.5430    1.9500 h1        1 MOL      0.028011
     76 N7         -1.7810   -2.7030    0.1830 n         1 MOL     -0.449677
     77 C25        -2.3260   -3.7270   -0.7990 c3        1 MOL      0.037744
     78 C26        -2.8720   -3.2230   -2.1530 c         1 MOL      0.375407
     79 O14        -3.0880   -4.0170   -3.0640 o         1 MOL     -0.518902
     80 C27        -3.3980   -4.3670    0.0650 c3        1 MOL     -0.159287
     81 C28        -4.6000   -3.4360    0.2970 c3        1 MOL     -0.175156
     82 C29        -5.6660   -4.1980    1.0710 c         1 MOL      0.730421
     83 N8         -6.7560   -4.5470    0.4000 n         1 MOL     -0.791985
     84 O15        -5.5440   -4.5290    2.2520 o         1 MOL     -0.564824
     85 H33        -2.2520   -2.6800    1.0790 hn        1 MOL      0.294853
     86 H34        -1.5210   -4.4050   -1.0980 h1        1 MOL      0.143741
     87 H35        -3.0290   -4.7990    1.0060 hc        1 MOL      0.070754
     88 H36        -3.8380   -5.2560   -0.3990 hc        1 MOL      0.070754
     89 H37        -4.9350   -3.1850   -0.7030 hc        1 MOL      0.085753
     90 H38        -4.2160   -2.5780    0.8390 hc        1 MOL      0.085753
     91 H39        -6.9140   -4.3290   -0.5750 hn        1 MOL      0.345534
     92 H40        -7.5020   -4.9130    0.9720 hn        1 MOL      0.345534
     93 N9         -3.1590   -1.9450   -2.2770 n         1 MOL     -0.099537
     94 C30        -3.6210   -1.3100   -3.5720 c3        1 MOL     -0.136933
     95 C31        -5.0070   -0.7410   -3.3200 c         1 MOL      0.527668
     96 O16        -5.5480   -0.1960   -4.2810 o         1 MOL     -0.552165
     97 C32        -2.6490   -0.1950   -4.1460 c3        1 MOL      0.093823
     98 C33        -1.2450   -0.8180   -4.3740 c3        1 MOL     -0.160948
     99 C34        -2.5490    1.0630   -3.1920 c3        1 MOL     -0.160948
    100 H41        -3.0640   -1.3420   -1.4750 hn        1 MOL      0.153356
    101 H42        -3.7010   -2.0260   -4.3930 h1        1 MOL      0.138942
    102 H43        -3.0620    0.1180   -5.1110 hc        1 MOL      0.018734
    103 H44        -1.3050   -1.6070   -5.1230 hc        1 MOL      0.047700
    104 H45        -0.5170   -0.0550   -4.6560 hc        1 MOL      0.047700
    105 H46        -0.8480   -1.2630   -3.4540 hc        1 MOL      0.047700
    106 H47        -1.7590    0.8530   -2.4660 hc        1 MOL      0.047700
    107 H48        -2.2770    2.0130   -3.6570 hc        1 MOL      0.047700
    108 H49        -3.5220    1.2450   -2.7540 hc        1 MOL      0.047700
    109 N10        -5.5950   -0.7940   -2.1310 n         1 MOL     -0.299192
    110 C35        -7.0060   -0.3830   -1.8820 c3        1 MOL      0.015390
    111 C36        -7.1790    0.6970   -0.7450 c         1 MOL      0.590265
    112 O17        -8.2940    1.1170   -0.4110 o         1 MOL     -0.564926
    113 C37        -7.8990   -1.5880   -1.4730 c3        1 MOL     -0.270382
    114 C38        -7.9910   -2.6790   -2.5520 c         1 MOL      0.677204
    115 N11        -8.7270   -2.4990   -3.6100 n         1 MOL     -0.753006
    116 O18        -7.3840   -3.7270   -2.3960 o         1 MOL     -0.555874
    117 H50        -5.0800   -1.2560   -1.3980 hn        1 MOL      0.107241
    118 H51        -7.3100    0.1320   -2.7910 h1        1 MOL      0.081030
    119 H52        -8.9370   -1.2930   -1.3290 hc        1 MOL      0.077532
    120 H53        -7.4920   -1.9880   -0.5440 hc        1 MOL      0.077532
    121 H54        -9.2070   -1.6180   -3.7030 hn        1 MOL      0.362545
    122 H55        -8.8920   -3.2430   -4.2750 hn        1 MOL      0.362545
    123 N12        -6.0690    1.1980   -0.2030 n         1 MOL     -0.494854
    124 C39        -5.9660    2.2470    0.7900 c3        1 MOL      0.282324
    125 C40        -4.6760    3.0700    0.6170 c         1 MOL      0.267243
    126 O19        -3.6610    2.5430    0.0690 o         1 MOL     -0.463629
    127 C41        -5.9740    1.6320    2.2310 c3        1 MOL      0.027184
    128 C42        -7.0850    0.6560    2.4740 ca        1 MOL     -0.011039
    129 C43        -8.4590    1.0050    2.6500 ca        1 MOL     -0.142073
    130 C44        -6.7670   -0.7240    2.4350 ca        1 MOL     -0.142073
    131 C45        -9.4410    0.0130    2.7470 ca        1 MOL     -0.140116
    132 C46        -7.7340   -1.7090    2.6350 ca        1 MOL     -0.140116
    133 C47        -9.1170   -1.3750    2.7070 ca        1 MOL      0.214187
    134 O20       -10.0360   -2.3970    2.8140 oh        1 MOL     -0.479889
    135 H56        -5.2130    0.6510   -0.2150 hn        1 MOL      0.297383
    136 H57        -6.7690    2.9580    0.6000 h1        1 MOL      0.020608
    137 H58        -6.1520    2.4370    2.9300 hc        1 MOL      0.002047
    138 H59        -4.9680    1.2860    2.4810 hc        1 MOL      0.002047
    139 H60        -8.7400    2.0410    2.7830 ha        1 MOL      0.100988
    140 H61        -5.7220   -0.9480    2.2850 ha        1 MOL      0.100988
    141 H62       -10.4360    0.3830    2.9460 ha        1 MOL      0.093273
    142 H63        -7.4550   -2.7540    2.6280 ha        1 MOL      0.093273
    143 H64       -10.9410   -2.0940    2.7600 ho        1 MOL      0.361975
    144 N13        -4.6150    4.2590    1.1090 n         1 MOL     -0.408043
    145 C48        -3.5140    4.9290    1.8250 c3        1 MOL      0.080001
    146 C49        -2.2900    5.2780    0.8900 c         1 MOL      0.605251
    147 O21        -1.6090    6.2730    1.0660 o         1 MOL     -0.600549
    148 C50        -3.0750    4.2200    3.1450 c3        1 MOL     -0.237234
    149 C51        -2.1850    2.9610    2.8960 c3        1 MOL     -0.041095
    150 C52        -1.7610    2.3150    4.2330 c         1 MOL      0.648426
    151 O22        -0.8940    2.9390    4.8190 o         1 MOL     -0.701172
    152 O23        -2.1650    1.1450    4.5550 o         1 MOL     -0.701172
    153 H65        -5.5380    4.6240    1.2980 hn        1 MOL      0.280302
    154 H66        -3.9250    5.9020    2.1080 h1        1 MOL      0.033907
    155 H67        -4.0100    3.9970    3.6650 hc        1 MOL      0.083645
    156 H68        -2.4220    4.8130    3.7690 hc        1 MOL      0.083645
    157 H69        -1.2920    3.1730    2.3190 hc        1 MOL      0.045451
    158 H70        -2.8000    2.2110    2.3960 hc        1 MOL      0.045451
    159 N14        -1.9530    4.5240   -0.1390 n         1 MOL     -0.506724
    160 C53        -0.7710    4.8010   -0.9850 c3        1 MOL      0.014592
    161 C54        -0.9930    5.8810   -2.0740 c         1 MOL      0.391927
    162 O24        -0.1890    6.0280   -2.9770 o         1 MOL     -0.522061
    163 C55        -0.2470    3.5000   -1.6150 c3        1 MOL     -0.138206
    164 C56         0.1310    2.3580   -0.5760 c3        1 MOL      0.401290
    165 C57         1.3250    2.7230    0.4010 c         1 MOL      0.579650
    166 O25         2.4170    2.0070    0.4360 o         1 MOL     -0.638262
    167 O26         1.1970    3.7790    1.1300 o         1 MOL     -0.638262
    168 H71        -2.4870    3.6750   -0.2770 hn        1 MOL      0.299056
    169 H72        -0.0290    5.1820   -0.2830 h1        1 MOL      0.158188
    170 H73         0.6330    3.7070   -2.2190 hc        1 MOL      0.037276
    171 H74        -1.0530    3.1490   -2.2600 hc        1 MOL      0.037276
    172 H75         0.3590    1.5220   -1.2370 hc        1 MOL     -0.129087
    173 H76        -0.7510    2.0440   -0.0290 hc        1 MOL     -0.129087
    174 N15        -2.1410    6.5470   -1.9160 n         1 MOL     -0.161708
    175 C58        -2.7460    7.5120   -2.8620 c3        1 MOL     -0.115226
    176 H77        -3.4650    6.9950   -3.4970 h1        1 MOL      0.059853
    177 H78        -3.2540    8.2990   -2.3050 h1        1 MOL      0.059853
    178 H79        -1.9650    7.9520   -3.4820 h1        1 MOL      0.059853
    179 H80        -2.6190    6.3160   -1.0580 hn        1 MOL      0.165731
    180 Ca1         4.6130    1.3480    1.5040 Ca        1 MOL      1.787967
    181 O27         3.3530    1.3700    3.9500 oh        1 MOL     -0.898890
    182 O28         3.6510    3.7560    2.2580 oh        1 MOL     -0.898890
    183 H81         3.6630    2.1970    4.3310 ho        1 MOL      0.430197
    184 H82         2.9000    3.7590    1.6550 ho        1 MOL      0.430197
    185 H83         2.4460    1.2940    4.2500 ho        1 MOL      0.430197
    186 H84         3.7840    4.6780    2.4680 ho        1 MOL      0.430197
    187 O29         6.1830   -0.3110    2.8740 oh        1 MOL     -0.898890
    188 H85         6.8250   -0.9840    2.6280 ho        1 MOL      0.430197
    189 H86         6.0380   -0.4630    3.8090 ho        1 MOL      0.430197
@<TRIPOS>BOND
     1    1    2 1   
     2    1    4 1   
     3    1    5 1   
     4    1    6 1   
     5    2    3 2   
     6    2    7 1   
     7    7    8 1   
     8    7   15 1   
     9    8    9 1   
    10    8   11 1   
    11    8   16 1   
    12    9   10 2   
    13    9   19 1   
    14   11   12 1   
    15   11   17 1   
    16   11   18 1   
    17   12   13 1   
    18   12   14 1   
    19   19   20 1   
    20   19   27 1   
    21   20   21 1   
    22   20   23 1   
    23   20   28 1   
    24   21   22 2   
    25   21   38 1   
    26   23   24 1   
    27   23   25 1   
    28   23   29 1   
    29   24   26 1   
    30   24   30 1   
    31   24   31 1   
    32   25   32 1   
    33   25   33 1   
    34   25   34 1   
    35   26   35 1   
    36   26   36 1   
    37   26   37 1   
    38   38   39 1   
    39   38   46 1   
    40   39   40 1   
    41   39   42 1   
    42   39   47 1   
    43   40   41 2   
    44   40   50 1   
    45   42   43 1   
    46   42   48 1   
    47   42   49 1   
    48   43   44 1   
    49   43   45 1   
    50   50   51 1   
    51   50   54 1   
    52   51   52 1   
    53   51   55 1   
    54   51   56 1   
    55   52   53 2   
    56   52   57 1   
    57   57   58 1   
    58   57   65 1   
    59   58   59 1   
    60   58   61 1   
    61   58   66 1   
    62   59   60 2   
    63   59   69 1   
    64   61   62 1   
    65   61   67 1   
    66   61   68 1   
    67   62   63 1   
    68   62   64 1   
    69   69   70 1   
    70   69   73 1   
    71   70   71 1   
    72   70   74 1   
    73   70   75 1   
    74   71   72 2   
    75   71   76 1   
    76   76   77 1   
    77   76   85 1   
    78   77   78 1   
    79   77   80 1   
    80   77   86 1   
    81   78   79 2   
    82   78   93 1   
    83   80   81 1   
    84   80   87 1   
    85   80   88 1   
    86   81   82 1   
    87   81   89 1   
    88   81   90 1   
    89   82   83 1   
    90   82   84 2   
    91   83   91 1   
    92   83   92 1   
    93   93   94 1   
    94   93  100 1   
    95   94   95 1   
    96   94   97 1   
    97   94  101 1   
    98   95   96 2   
    99   95  109 1   
   100   97   98 1   
   101   97   99 1   
   102   97  102 1   
   103   98  103 1   
   104   98  104 1   
   105   98  105 1   
   106   99  106 1   
   107   99  107 1   
   108   99  108 1   
   109  109  110 1   
   110  109  117 1   
   111  110  111 1   
   112  110  113 1   
   113  110  118 1   
   114  111  112 2   
   115  111  123 1   
   116  113  114 1   
   117  113  119 1   
   118  113  120 1   
   119  114  115 1   
   120  114  116 2   
   121  115  121 1   
   122  115  122 1   
   123  123  124 1   
   124  123  135 1   
   125  124  125 1   
   126  124  127 1   
   127  124  136 1   
   128  125  126 2   
   129  125  144 1   
   130  127  128 1   
   131  127  137 1   
   132  127  138 1   
   133  128  129 ar  
   134  128  130 ar  
   135  129  131 ar  
   136  129  139 1   
   137  130  132 ar  
   138  130  140 1   
   139  131  133 ar  
   140  131  141 1   
   141  132  133 ar  
   142  132  142 1   
   143  133  134 1   
   144  134  143 1   
   145  144  145 1   
   146  144  153 1   
   147  145  146 1   
   148  145  148 1   
   149  145  154 1   
   150  146  147 2   
   151  146  159 1   
   152  148  149 1   
   153  148  155 1   
   154  148  156 1   
   155  149  150 1   
   156  149  157 1   
   157  149  158 1   
   158  150  151 1   
   159  150  152 1   
   160  159  160 1   
   161  159  168 1   
   162  160  161 1   
   163  160  163 1   
   164  160  169 1   
   165  161  162 2   
   166  161  174 1   
   167  163  164 1   
   168  163  170 1   
   169  163  171 1   
   170  164  165 1   
   171  164  172 1   
   172  164  173 1   
   173  165  166 1   
   174  165  167 1   
   175  174  175 1   
   176  174  179 1   
   177  175  176 1   
   178  175  177 1   
   179  175  178 1   
   180  181  183 1   
   181  181  185 1   
   182  182  184 1   
   183  182  186 1   
   184  187  188 1   
   185  187  189 1   
@<TRIPOS>SUBSTRUCTURE
     1 MOL         1 TEMP              0 ****  ****    0 ROOT
