@<TRIPOS>MOLECULE
MOL
  175   173     1     0     0
SMALL
resp


@<TRIPOS>ATOM
      1 C1         -6.7130    7.8190    1.2730 c3        1 MOL     -0.307220
      2 C2         -7.7100    6.8740    0.6310 c         1 MOL      0.650755
      3 O1         -7.9830    7.0980   -0.6010 o         1 MOL     -0.576942
      4 H1         -6.4910    8.6350    0.5850 hc        1 MOL      0.071939
      5 H2         -7.1370    8.2250    2.1920 hc        1 MOL      0.071939
      6 H3         -5.7960    7.2790    1.5030 hc        1 MOL      0.071939
      7 N1         -8.1520    5.8020    1.3270 n         1 MOL     -0.432365
      8 C3         -9.2150    4.9200    0.8430 c3        1 MOL      0.045753
      9 C4         -8.7100    3.6650    0.1490 c         1 MOL      0.619849
     10 O2         -9.4110    2.6390    0.1060 o         1 MOL     -0.517855
     11 C5        -10.2510    4.6670    1.8530 c3        1 MOL     -0.113140
     12 C6        -11.6530    4.3460    1.4000 c         1 MOL      0.667336
     13 O3        -12.2480    5.1850    0.5960 o         1 MOL     -0.713669
     14 O4        -12.2270    3.3540    1.9110 o         1 MOL     -0.713669
     15 H4         -7.8760    5.7280    2.2950 hn        1 MOL      0.263538
     16 H5         -9.6680    5.4390   -0.0070 h1        1 MOL      0.043988
     17 H6        -10.3080    5.5740    2.4550 hc        1 MOL      0.003967
     18 H7         -9.9390    3.8870    2.5420 hc        1 MOL      0.003967
     19 N2         -7.3940    3.6620   -0.2790 n         1 MOL     -0.650874
     20 C7         -6.7160    2.7280   -1.1630 c3        1 MOL      0.625773
     21 C8         -5.3030    2.3080   -0.5810 c         1 MOL      0.207065
     22 O5         -4.6320    3.0340    0.2070 o         1 MOL     -0.484100
     23 C9         -6.6700    3.4370   -2.5070 c3        1 MOL     -0.258398
     24 H8         -6.7580    4.3220    0.1570 hn        1 MOL      0.230154
     25 H9         -7.2970    1.8240   -1.3120 h1        1 MOL     -0.095719
     26 H10        -7.7040    3.5760   -2.8180 hc        1 MOL      0.060928
     27 H11        -6.2170    4.4230   -2.4220 hc        1 MOL      0.060928
     28 H12        -6.0620    2.9370   -3.2620 hc        1 MOL      0.060928
     29 N3         -4.6660    1.2300   -1.0660 n         1 MOL     -0.173261
     30 C10        -5.1460    0.2080   -2.0930 c3        1 MOL     -0.069883
     31 C11        -5.5440   -1.0810   -1.4220 c         1 MOL      0.535812
     32 O6         -5.0180   -1.4720   -0.3370 o         1 MOL     -0.583214
     33 C12        -4.1010   -0.0610   -3.1900 c3        1 MOL     -0.223730
     34 C13        -2.7210   -0.4050   -2.6400 c         1 MOL      0.719322
     35 O7         -2.1590   -1.5260   -2.8840 o         1 MOL     -0.674681
     36 O8         -2.0770    0.5090   -2.0080 o         1 MOL     -0.674681
     37 H13        -3.6660    1.0800   -0.9740 hn        1 MOL      0.217188
     38 H14        -6.0350    0.6920   -2.5140 h1        1 MOL      0.055679
     39 H15        -4.0160    0.8220   -3.8150 hc        1 MOL      0.055789
     40 H16        -4.4860   -0.9010   -3.7700 hc        1 MOL      0.055789
     41 N4         -6.4170   -1.8220   -2.0530 n         1 MOL     -0.366428
     42 C14        -7.0080   -3.0690   -1.5240 c3        1 MOL     -0.032166
     43 C15        -6.6220   -4.3750   -2.3290 c         1 MOL      0.511028
     44 O9         -7.4490   -4.9140   -3.0950 o         1 MOL     -0.557819
     45 H17        -6.8280   -1.5520   -2.9420 hn        1 MOL      0.284731
     46 H18        -8.0980   -3.0870   -1.4320 h1        1 MOL      0.085157
     47 H19        -6.7220   -3.1950   -0.4860 h1        1 MOL      0.085157
     48 N5         -5.3780   -4.9140   -2.2700 n         1 MOL     -0.469525
     49 C16        -4.2350   -4.4780   -1.4550 c3        1 MOL      0.105011
     50 C17        -4.3960   -4.8890    0.0190 c         1 MOL      0.443933
     51 O10        -4.6660   -6.1120    0.2150 o         1 MOL     -0.563658
     52 C18        -2.9460   -5.0530   -2.0080 c3        1 MOL     -0.110635
     53 C19        -1.7110   -4.4220   -1.5350 c         1 MOL      0.555855
     54 N6         -0.5790   -4.9260   -1.9930 n         1 MOL     -0.610107
     55 O11        -1.7190   -3.4930   -0.7270 o         1 MOL     -0.622245
     56 H20        -5.1890   -5.7280   -2.8310 hn        1 MOL      0.303872
     57 H21        -4.1680   -3.3990   -1.5630 h1        1 MOL      0.071360
     58 H22        -3.0380   -4.8800   -3.0740 hc        1 MOL      0.046757
     59 H23        -2.9300   -6.1360   -1.8560 hc        1 MOL      0.046757
     60 H24        -0.6300   -5.6930   -2.6510 hn        1 MOL      0.305202
     61 H25         0.3380   -4.6830   -1.6500 hn        1 MOL      0.305202
     62 N7         -4.0900   -4.0640    1.0190 n         1 MOL     -0.217801
     63 C20        -4.0810   -4.5040    2.4300 c3        1 MOL     -0.324808
     64 C21        -2.6750   -4.5170    2.9870 c         1 MOL      0.557157
     65 O12        -2.5730   -4.8020    4.1860 o         1 MOL     -0.574975
     66 H26        -3.9240   -3.1000    0.7590 hn        1 MOL      0.281047
     67 H27        -4.2590   -5.5790    2.4870 h1        1 MOL      0.160336
     68 H28        -4.7370   -3.8620    3.0090 h1        1 MOL      0.160336
     69 N8         -1.6140   -4.2860    2.2030 n         1 MOL     -0.336948
     70 C22        -0.2310   -4.4080    2.6700 c3        1 MOL     -0.108795
     71 C23         0.7650   -3.3010    2.2490 c         1 MOL      0.587737
     72 O13         0.5410   -2.4740    1.3900 o         1 MOL     -0.633590
     73 C24         0.3470   -5.7300    2.1350 c3        1 MOL      0.436810
     74 C25        -0.3420   -7.0020    2.6180 c3        1 MOL     -0.443099
     75 O14         0.1570   -5.7060    0.7180 oh        1 MOL     -0.694407
     76 H29        -1.8660   -4.3520    1.2280 hn        1 MOL      0.383862
     77 H30        -0.1280   -4.4630    3.7540 h1        1 MOL      0.063124
     78 H31         1.4170   -5.8110    2.3090 h1        1 MOL     -0.015333
     79 H32         0.9210   -5.3560    0.2690 ho        1 MOL      0.459942
     80 H33         0.2420   -7.8790    2.3360 hc        1 MOL      0.116345
     81 H34        -0.3820   -7.0620    3.7070 hc        1 MOL      0.116345
     82 H35        -1.3270   -7.0760    2.1580 hc        1 MOL      0.116345
     83 N9          1.9320   -3.2770    2.8840 n         1 MOL     -0.477980
     84 C26         3.0160   -2.3600    2.5920 c3        1 MOL      0.354514
     85 C27         3.9110   -2.8970    1.4790 c         1 MOL      0.307310
     86 O15         4.4100   -4.0090    1.4850 o         1 MOL     -0.554171
     87 C28         3.7870   -2.0190    3.8820 c3        1 MOL      0.028340
     88 C29         4.7910   -0.8720    3.7800 c3        1 MOL     -0.049624
     89 C30         2.7620   -1.7580    4.9790 c3        1 MOL     -0.270573
     90 C31         4.2900    0.4740    3.1990 c3        1 MOL     -0.030474
     91 H36         2.1770   -4.0730    3.4700 hn        1 MOL      0.250567
     92 H37         2.5990   -1.4290    2.2030 h1        1 MOL      0.065340
     93 H38         4.3700   -2.9140    4.0950 hc        1 MOL     -0.004460
     94 H39         5.6570   -1.2070    3.2150 hc        1 MOL      0.010127
     95 H40         5.2030   -0.5860    4.7490 hc        1 MOL      0.010127
     96 H41         2.2940   -2.6020    5.5020 hc        1 MOL      0.067276
     97 H42         3.2100   -1.2000    5.8000 hc        1 MOL      0.067276
     98 H43         1.9140   -1.1780    4.6170 hc        1 MOL      0.067276
     99 H44         3.9670    0.2860    2.1720 hc        1 MOL     -0.002895
    100 H45         3.4930    0.9390    3.7840 hc        1 MOL     -0.002895
    101 H46         5.1290    1.1500    3.0790 hc        1 MOL     -0.002895
    102 N10         4.0740   -2.1780    0.4070 n         1 MOL     -0.229504
    103 C32         4.7920   -2.6890   -0.8880 c3        1 MOL      0.040266
    104 C33         5.9010   -1.7020   -1.3690 c         1 MOL      0.534011
    105 O16         6.1930   -1.8570   -2.5550 o         1 MOL     -0.522018
    106 C34         3.8700   -3.1290   -1.9500 c3        1 MOL     -0.231857
    107 C35         2.5020   -3.6510   -1.4990 c         1 MOL      0.744999
    108 O17         2.2780   -4.8430   -1.1300 o         1 MOL     -0.696944
    109 O18         1.4990   -2.9060   -1.6520 o         1 MOL     -0.696944
    110 H47         3.5310   -1.3510    0.2240 hn        1 MOL      0.185918
    111 H48         5.4110   -3.5670   -0.6820 h1        1 MOL      0.101374
    112 H49         4.3210   -3.9370   -2.5180 hc        1 MOL      0.061625
    113 H50         3.7350   -2.3160   -2.6720 hc        1 MOL      0.061625
    114 N11         6.3960   -0.6780   -0.5890 n         1 MOL     -0.564947
    115 C36         7.3750    0.3020   -0.9230 c3        1 MOL      0.427495
    116 C37         6.8860    1.7130   -0.4240 c         1 MOL      0.406519
    117 O19         6.3620    1.9080    0.6760 o         1 MOL     -0.490349
    118 C38         8.6860   -0.1530   -0.3350 c3        1 MOL     -0.467728
    119 C39         9.8230    0.8370   -0.4930 ca        1 MOL      0.226404
    120 C40        10.0660    1.7870    0.5720 ca        1 MOL     -0.198673
    121 C41        10.7120    0.6710   -1.5930 ca        1 MOL     -0.198673
    122 C42        11.1610    2.6250    0.4680 ca        1 MOL     -0.090590
    123 C43        11.8190    1.5480   -1.6750 ca        1 MOL     -0.090590
    124 C44        12.0420    2.5000   -0.6810 ca        1 MOL     -0.178551
    125 H51         6.0530   -0.6320    0.3570 hn        1 MOL      0.274379
    126 H52         7.3640    0.2650   -2.0090 h1        1 MOL     -0.017919
    127 H53         8.9790   -1.0920   -0.8010 hc        1 MOL      0.142147
    128 H54         8.6270   -0.3540    0.7310 hc        1 MOL      0.142147
    129 H55         9.3180    1.8330    1.3540 ha        1 MOL      0.126998
    130 H56        10.5200    0.0540   -2.4500 ha        1 MOL      0.126998
    131 H57        11.4090    3.3730    1.2020 ha        1 MOL      0.109674
    132 H58        12.4640    1.6310   -2.5330 ha        1 MOL      0.109674
    133 H59        12.7730    3.2800   -0.8190 ha        1 MOL      0.117017
    134 N12         7.1080    2.8390   -1.1700 n         1 MOL     -0.107081
    135 C45         7.2490    4.1640   -0.5440 c3        1 MOL     -0.156214
    136 C46         5.8040    4.8120   -0.2960 c         1 MOL      0.499708
    137 O20         5.6820    6.0250   -0.0730 o         1 MOL     -0.554334
    138 C47         8.0670    4.9570   -1.5940 c3        1 MOL     -0.063345
    139 C48         7.4220    4.4620   -2.8570 c3        1 MOL     -0.062737
    140 C49         7.3860    2.9810   -2.6150 c3        1 MOL     -0.191646
    141 H60         7.7270    4.1890    0.4360 h1        1 MOL      0.110949
    142 H61         7.9410    6.0260   -1.4450 hc        1 MOL      0.061118
    143 H62         9.1420    4.7460   -1.5700 hc        1 MOL      0.061118
    144 H63         6.4370    4.9270   -2.8860 hc        1 MOL      0.064334
    145 H64         7.9700    4.5860   -3.7940 hc        1 MOL      0.064334
    146 H65         6.6140    2.5050   -3.2250 h1        1 MOL      0.098056
    147 H66         8.3490    2.4960   -2.7330 h1        1 MOL      0.098056
    148 N13         4.7210    4.0970   -0.4110 n         1 MOL     -0.170011
    149 C50         3.2650    4.5060   -0.1680 c3        1 MOL     -0.231661
    150 C51         3.0100    5.0530    1.2680 c         1 MOL      0.521170
    151 O21         2.0830    5.7790    1.5930 o         1 MOL     -0.525580
    152 C52         2.3360    3.2210   -0.3850 c3        1 MOL     -0.076799
    153 C53         2.6130    2.0610    0.5630 c3        1 MOL     -0.088935
    154 C54         1.6540    0.9790    0.2290 c         1 MOL      0.607531
    155 O22         0.4280    1.1440    0.4030 o         1 MOL     -0.717874
    156 O23         2.0240   -0.0940   -0.3830 o         1 MOL     -0.717874
    157 H67         4.9070    3.1180   -0.6030 hn        1 MOL      0.150315
    158 H68         2.8730    5.3020   -0.8000 h1        1 MOL      0.150097
    159 H69         2.4930    2.8960   -1.4130 hc        1 MOL      0.093898
    160 H70         1.2980    3.5000   -0.2000 hc        1 MOL      0.093898
    161 H71         2.3720    2.4680    1.5430 hc        1 MOL      0.056618
    162 H72         3.6050    1.6320    0.4830 hc        1 MOL      0.056618
    163 N14         3.9120    4.7820    2.2310 n         1 MOL     -0.210911
    164 C55         3.8290    5.2210    3.6080 c3        1 MOL     -0.019777
    165 H73         3.7780    4.3510    4.2640 h1        1 MOL      0.044353
    166 H74         4.7110    5.8110    3.8570 h1        1 MOL      0.044353
    167 H75         2.9350    5.8290    3.7430 h1        1 MOL      0.044353
    168 H76         4.6300    4.1210    1.9870 hn        1 MOL      0.175910
    169 Ca1        -0.2610   -1.1690   -0.8310 Ca        1 MOL      1.707173
    170 O24         0.8420   -0.6400   -3.3010 oh        1 MOL     -0.799235
    171 H77         1.0780   -1.4870   -3.6870 ho        1 MOL      0.387281
    172 H78         1.6860   -0.2240   -3.1270 ho        1 MOL      0.387281
    173 O25        -2.3680   -1.1300    0.7950 oh        1 MOL     -0.799235
    174 H79        -2.1490   -1.3280    1.6990 ho        1 MOL      0.387281
    175 H80        -3.0760   -0.4920    0.8480 ho        1 MOL      0.387281
@<TRIPOS>BOND
     1    1    2 1   
     2    1    4 1   
     3    1    5 1   
     4    1    6 1   
     5    2    3 2   
     6    2    7 1   
     7    7    8 1   
     8    7   15 1   
     9    8    9 1   
    10    8   11 1   
    11    8   16 1   
    12    9   10 2   
    13    9   19 1   
    14   11   12 1   
    15   11   17 1   
    16   11   18 1   
    17   12   13 1   
    18   12   14 1   
    19   19   20 1   
    20   19   24 1   
    21   20   21 1   
    22   20   23 1   
    23   20   25 1   
    24   21   22 2   
    25   21   29 1   
    26   23   26 1   
    27   23   27 1   
    28   23   28 1   
    29   29   30 1   
    30   29   37 1   
    31   30   31 1   
    32   30   33 1   
    33   30   38 1   
    34   31   32 2   
    35   31   41 1   
    36   33   34 1   
    37   33   39 1   
    38   33   40 1   
    39   34   35 1   
    40   34   36 1   
    41   41   42 1   
    42   41   45 1   
    43   42   43 1   
    44   42   46 1   
    45   42   47 1   
    46   43   44 2   
    47   43   48 1   
    48   48   49 1   
    49   48   56 1   
    50   49   50 1   
    51   49   52 1   
    52   49   57 1   
    53   50   51 2   
    54   50   62 1   
    55   52   53 1   
    56   52   58 1   
    57   52   59 1   
    58   53   54 1   
    59   53   55 2   
    60   54   60 1   
    61   54   61 1   
    62   62   63 1   
    63   62   66 1   
    64   63   64 1   
    65   63   67 1   
    66   63   68 1   
    67   64   65 2   
    68   64   69 1   
    69   69   70 1   
    70   69   76 1   
    71   70   71 1   
    72   70   73 1   
    73   70   77 1   
    74   71   72 2   
    75   71   83 1   
    76   73   74 1   
    77   73   75 1   
    78   73   78 1   
    79   74   80 1   
    80   74   81 1   
    81   74   82 1   
    82   75   79 1   
    83   83   84 1   
    84   83   91 1   
    85   84   85 1   
    86   84   87 1   
    87   84   92 1   
    88   85   86 2   
    89   85  102 1   
    90   87   88 1   
    91   87   89 1   
    92   87   93 1   
    93   88   90 1   
    94   88   94 1   
    95   88   95 1   
    96   89   96 1   
    97   89   97 1   
    98   89   98 1   
    99   90   99 1   
   100   90  100 1   
   101   90  101 1   
   102  102  103 1   
   103  102  110 1   
   104  103  104 1   
   105  103  106 1   
   106  103  111 1   
   107  104  105 2   
   108  104  114 1   
   109  106  107 1   
   110  106  112 1   
   111  106  113 1   
   112  107  108 1   
   113  107  109 1   
   114  114  115 1   
   115  114  125 1   
   116  115  116 1   
   117  115  118 1   
   118  115  126 1   
   119  116  117 2   
   120  116  134 1   
   121  118  119 1   
   122  118  127 1   
   123  118  128 1   
   124  119  120 ar  
   125  119  121 ar  
   126  120  122 ar  
   127  120  129 1   
   128  121  123 ar  
   129  121  130 1   
   130  122  124 ar  
   131  122  131 1   
   132  123  124 ar  
   133  123  132 1   
   134  124  133 1   
   135  134  135 1   
   136  134  140 1   
   137  135  136 1   
   138  135  138 1   
   139  135  141 1   
   140  136  137 2   
   141  136  148 1   
   142  138  139 1   
   143  138  142 1   
   144  138  143 1   
   145  139  140 1   
   146  139  144 1   
   147  139  145 1   
   148  140  146 1   
   149  140  147 1   
   150  148  149 1   
   151  148  157 1   
   152  149  150 1   
   153  149  152 1   
   154  149  158 1   
   155  150  151 2   
   156  150  163 1   
   157  152  153 1   
   158  152  159 1   
   159  152  160 1   
   160  153  154 1   
   161  153  161 1   
   162  153  162 1   
   163  154  155 1   
   164  154  156 1   
   165  163  164 1   
   166  163  168 1   
   167  164  165 1   
   168  164  166 1   
   169  164  167 1   
   170  170  171 1   
   171  170  172 1   
   172  173  174 1   
   173  173  175 1   
@<TRIPOS>SUBSTRUCTURE
     1 MOL         1 TEMP              0 ****  ****    0 ROOT
