@<TRIPOS>MOLECULE
MOL
  185   180     1     0     0
SMALL
resp


@<TRIPOS>ATOM
      1 C1          9.2510   -0.9530    5.3170 c3        1 MOL     -0.348264
      2 C2          8.5140   -0.3800    4.1250 c         1 MOL      0.668607
      3 O1          7.3660   -0.7310    3.8960 o         1 MOL     -0.559079
      4 H1          8.8660   -1.9490    5.5360 hc        1 MOL      0.092217
      5 H2         10.3150   -1.0160    5.0910 hc        1 MOL      0.092217
      6 H3          9.1010   -0.3070    6.1830 hc        1 MOL      0.092217
      7 N1          9.1070    0.5270    3.3190 n         1 MOL     -0.507981
      8 C3          8.4290    1.3620    2.2550 c3        1 MOL      0.088884
      9 C4          7.9760    0.5590    1.0330 c         1 MOL      0.292279
     10 O2          7.1860    1.0050    0.1500 o         1 MOL     -0.476517
     11 C5          7.4280    2.3970    2.7010 c3        1 MOL     -0.111153
     12 C6          8.0550    3.4460    3.5950 c         1 MOL      0.665342
     13 O3          8.0150    3.2870    4.8520 o         1 MOL     -0.668969
     14 O4          8.5830    4.4200    3.0000 o         1 MOL     -0.668969
     15 H4         10.0880    0.6280    3.5650 hn        1 MOL      0.287712
     16 H5          9.2770    1.9300    1.8660 h1        1 MOL      0.066796
     17 H6          6.4980    2.0500    3.1450 hc        1 MOL      0.067309
     18 H7          7.1860    2.9830    1.8130 hc        1 MOL      0.067309
     19 N2          8.3250   -0.7190    1.0230 n         1 MOL     -0.167264
     20 C7          7.8700   -1.6060   -0.0840 c3        1 MOL     -0.006654
     21 C8          6.3750   -2.0280   -0.0170 c         1 MOL      0.680035
     22 O5          6.1620   -3.1880    0.2880 o         1 MOL     -0.595176
     23 C9          8.8910   -2.7400   -0.2310 c3        1 MOL     -0.055541
     24 C10        10.2520   -2.2870   -0.7170 c3        1 MOL      0.032413
     25 C11        10.3400   -1.5830   -2.0920 c3        1 MOL     -0.198603
     26 C12         9.6830   -2.3000   -3.2360 c3        1 MOL      0.022807
     27 N3         10.4980   -3.4200   -3.7600 n4        1 MOL     -0.225223
     28 H8          8.9890   -1.0400    1.7070 hn        1 MOL      0.198677
     29 H9          7.9100   -0.9650   -0.9590 h1        1 MOL      0.017670
     30 H10         8.4160   -3.4390   -0.9270 hc        1 MOL      0.040615
     31 H11         9.0000   -3.2280    0.7290 hc        1 MOL      0.040615
     32 H12        10.8860   -3.1720   -0.6720 hc        1 MOL     -0.004078
     33 H13        10.5570   -1.6470    0.1150 hc        1 MOL     -0.004078
     34 H14        11.3850   -1.4100   -2.3570 hc        1 MOL      0.099612
     35 H15         9.8290   -0.6280   -2.0060 hc        1 MOL      0.099612
     36 H16         9.5750   -1.5830   -4.0420 hx        1 MOL      0.095690
     37 H17         8.7380   -2.7760   -2.9580 hx        1 MOL      0.095690
     38 H18        10.6460   -4.1820   -3.1270 hn        1 MOL      0.252243
     39 H19        10.0510   -3.9030   -4.5220 hn        1 MOL      0.252243
     40 H20        11.3610   -3.0450   -4.1400 hn        1 MOL      0.252243
     41 N4          5.3980   -1.1780   -0.4030 n         1 MOL     -0.519491
     42 C13         4.0370   -1.5140   -0.4950 c3        1 MOL      0.133065
     43 C14         3.5740   -2.1530   -1.9120 c         1 MOL      0.381394
     44 O6          3.9540   -1.6910   -3.0010 o         1 MOL     -0.524040
     45 C15         3.1490   -0.2840   -0.0320 c3        1 MOL      0.014098
     46 C16         1.6910   -0.5400    0.1490 c         1 MOL      0.261590
     47 O7          1.3370   -0.5850    1.3390 o         1 MOL     -0.534347
     48 O8          0.9470   -0.7860   -0.8350 o         1 MOL     -0.534347
     49 H21         5.6660   -0.2490   -0.6940 hn        1 MOL      0.269723
     50 H22         3.7890   -2.3010    0.2220 h1        1 MOL      0.071531
     51 H23         3.1470    0.3680   -0.8980 hc        1 MOL      0.061643
     52 H24         3.5470    0.1050    0.9020 hc        1 MOL      0.061643
     53 N5          2.8130   -3.1990   -1.8780 n         1 MOL     -0.180591
     54 C17         2.3660   -3.9300   -3.0880 c3        1 MOL     -0.199726
     55 C18         1.4240   -3.1930   -4.0080 c         1 MOL      0.567928
     56 O9          1.4340   -3.4770   -5.2240 o         1 MOL     -0.598173
     57 H25         2.6080   -3.5830   -0.9750 hn        1 MOL      0.197918
     58 H26         1.8270   -4.8180   -2.7370 h1        1 MOL      0.113430
     59 H27         3.2480   -4.1700   -3.6730 h1        1 MOL      0.113430
     60 N6          0.6280   -2.2230   -3.6200 n         1 MOL     -0.174947
     61 C19        -0.2790   -1.4080   -4.5220 c3        1 MOL      0.034331
     62 C20        -0.0030    0.0590   -4.3170 c         1 MOL      0.348760
     63 O10        -0.7890    0.9600   -4.6480 o         1 MOL     -0.492687
     64 C21        -1.7810   -1.8480   -4.2350 c3        1 MOL     -0.279834
     65 C22        -2.2540   -1.3690   -2.8640 c         1 MOL      0.822478
     66 N7         -3.1000   -0.3790   -2.7330 n         1 MOL     -0.808265
     67 O11        -1.9610   -1.9180   -1.8190 o         1 MOL     -0.740450
     68 H28         0.5210   -2.0900   -2.6240 hn        1 MOL      0.047539
     69 H29        -0.1530   -1.6580   -5.5720 h1        1 MOL      0.128643
     70 H30        -1.8820   -2.9290   -4.2950 hc        1 MOL      0.104265
     71 H31        -2.4120   -1.4080   -5.0010 hc        1 MOL      0.104265
     72 H32        -3.5930    0.0120   -3.5220 hn        1 MOL      0.353442
     73 H33        -3.3130   -0.1080   -1.7830 hn        1 MOL      0.353442
     74 N8          1.2190    0.3730   -3.7570 n         1 MOL     -0.089920
     75 C23         1.7520    1.6740   -3.5680 c3        1 MOL     -0.259061
     76 C24         1.0650    2.6510   -2.5970 c         1 MOL      0.632452
     77 O12         0.9160    3.8300   -2.9240 o         1 MOL     -0.578865
     78 H34         1.8460   -0.4220   -3.7030 hn        1 MOL      0.157879
     79 H35         1.8170    2.2200   -4.5060 h1        1 MOL      0.104465
     80 H36         2.7330    1.3910   -3.1740 h1        1 MOL      0.104465
     81 N9          0.4860    2.1160   -1.5550 n         1 MOL     -0.192234
     82 C25        -0.1750    2.9170   -0.5070 c3        1 MOL     -0.091997
     83 C26        -1.3690    2.1520    0.0940 c         1 MOL      0.342318
     84 O13        -1.4220    0.9080    0.0940 o         1 MOL     -0.419739
     85 C27         0.8410    3.1030    0.6240 c3        1 MOL     -0.056475
     86 C28         2.0920    4.0030    0.3240 ca        1 MOL      0.113914
     87 C29         3.4130    3.5450    0.6580 ca        1 MOL     -0.331597
     88 C30         1.9370    5.1530   -0.4460 ca        1 MOL     -0.331597
     89 C31         4.5070    4.4030    0.3910 ca        1 MOL     -0.084601
     90 C32         3.0170    6.0110   -0.7130 ca        1 MOL     -0.084601
     91 C33         4.2650    5.6470   -0.2510 ca        1 MOL      0.240995
     92 O14         5.2670    6.4630   -0.5800 oh        1 MOL     -0.445022
     93 H37         0.6670    1.1460   -1.3300 hn        1 MOL      0.145401
     94 H38        -0.5290    3.8620   -0.9300 h1        1 MOL      0.094755
     95 H39         1.2270    2.1520    0.9920 hc        1 MOL      0.061362
     96 H40         0.4630    3.5820    1.5240 hc        1 MOL      0.061362
     97 H41         3.5090    2.7150    1.3520 ha        1 MOL      0.173282
     98 H42         0.9640    5.1920   -0.9220 ha        1 MOL      0.173282
     99 H43         5.5040    4.1050    0.6840 ha        1 MOL      0.100453
    100 H44         2.7870    6.9950   -1.1040 ha        1 MOL      0.100453
    101 H45         4.8210    7.3080   -0.6480 ho        1 MOL      0.334392
    102 N10        -2.3960    2.8710    0.4490 n         1 MOL     -0.335802
    103 C34        -3.6250    2.4140    1.0530 c3        1 MOL     -0.212528
    104 C35        -4.5020    2.1700   -0.2190 c         1 MOL      0.700300
    105 O15        -4.8410    1.0540   -0.5180 o         1 MOL     -0.544881
    106 C36        -4.2020    3.4120    2.0780 c3        1 MOL      0.282716
    107 C37        -3.2020    3.8060    3.1550 c3        1 MOL      0.010423
    108 C38        -5.5610    2.9830    2.5680 c3        1 MOL     -0.438589
    109 C39        -2.4700    2.6820    3.9770 c3        1 MOL     -0.213487
    110 H46        -2.2960    3.8710    0.2910 hn        1 MOL      0.241751
    111 H47        -3.4220    1.4810    1.5820 h1        1 MOL      0.122460
    112 H48        -4.3800    4.3240    1.5100 hc        1 MOL     -0.068046
    113 H49        -3.7830    4.4720    3.7870 hc        1 MOL      0.016307
    114 H50        -2.3610    4.4340    2.8630 hc        1 MOL      0.016307
    115 H51        -5.8880    3.8980    3.0750 hc        1 MOL      0.110984
    116 H52        -6.2560    2.8450    1.7400 hc        1 MOL      0.110984
    117 H53        -5.6190    2.1180    3.2140 hc        1 MOL      0.110984
    118 H54        -1.9460    3.0700    4.8560 hc        1 MOL      0.068196
    119 H55        -3.1370    1.8460    4.2180 hc        1 MOL      0.068196
    120 H56        -1.6570    2.2660    3.3790 hc        1 MOL      0.068196
    121 N11        -4.9130    3.2610   -0.9160 n         1 MOL     -0.304489
    122 C40        -5.6720    3.1110   -2.0830 c3        1 MOL     -0.144470
    123 C41        -7.0110    2.3560   -1.9500 c         1 MOL      0.562216
    124 O16        -7.4210    1.5110   -2.7180 o         1 MOL     -0.541538
    125 C42        -5.7280    4.5600   -2.6960 c3        1 MOL     -0.131197
    126 O17        -6.0090    5.5520   -1.7280 oh        1 MOL     -0.610833
    127 H57        -4.5420    4.1800   -0.7200 hn        1 MOL      0.318787
    128 H58        -5.1280    2.4510   -2.7600 h1        1 MOL      0.111364
    129 H59        -6.5710    4.6420   -3.3730 h1        1 MOL      0.130208
    130 H60        -4.7790    4.8740   -3.1230 h1        1 MOL      0.130208
    131 H61        -6.1450    6.3340   -2.2530 ho        1 MOL      0.442799
    132 N12        -7.7130    2.6710   -0.8740 n         1 MOL     -0.120085
    133 C43        -9.0150    2.0870   -0.4750 c3        1 MOL      0.119929
    134 C44        -9.0400    0.5930   -0.1940 c         1 MOL      0.561756
    135 O18       -10.0850   -0.0290   -0.2300 o         1 MOL     -0.554855
    136 C45       -10.1250    2.5610   -1.4090 c3        1 MOL     -0.356312
    137 H62        -7.3740    3.4200   -0.3010 hn        1 MOL      0.149383
    138 H63        -9.2880    2.5010    0.4940 h1        1 MOL      0.045516
    139 H64       -10.1190    2.0910   -2.3920 hc        1 MOL      0.103805
    140 H65       -11.0780    2.3540   -0.9180 hc        1 MOL      0.103805
    141 H66        -9.9210    3.5950   -1.6990 hc        1 MOL      0.103805
    142 N13        -7.9230   -0.0660   -0.0040 n         1 MOL     -0.534237
    143 C46        -7.7490   -1.5190   -0.0020 c3        1 MOL      0.567139
    144 C47        -6.9200   -2.0120    1.2120 c         1 MOL      0.181065
    145 O19        -6.3160   -1.1890    1.9240 o         1 MOL     -0.442044
    146 C48        -7.0420   -1.9500   -1.2610 c3        1 MOL     -0.615139
    147 H67        -7.0910    0.4970    0.0870 hn        1 MOL      0.103751
    148 H68        -8.7190   -2.0010    0.0120 h1        1 MOL     -0.015341
    149 H69        -6.0340   -1.5600   -1.4140 hc        1 MOL      0.165325
    150 H70        -6.8320   -3.0160   -1.2280 hc        1 MOL      0.165325
    151 H71        -7.5850   -1.4600   -2.0740 hc        1 MOL      0.165325
    152 N14        -6.9810   -3.2700    1.4150 n         1 MOL     -0.116208
    153 C49        -6.3210   -3.9980    2.5430 c3        1 MOL     -0.023437
    154 C50        -6.7270   -3.4780    3.9070 c         1 MOL      0.437675
    155 O20        -5.9270   -3.3350    4.8610 o         1 MOL     -0.510340
    156 C51        -4.8220   -4.2600    2.3420 c3        1 MOL      0.123353
    157 C52        -4.3680   -4.9450    1.0550 c3        1 MOL      0.073974
    158 C53        -2.8540   -5.1570    0.9730 c         1 MOL      0.538709
    159 O21        -2.3750   -6.3130    0.9960 o         1 MOL     -0.633898
    160 O22        -2.1130   -4.1320    0.8180 o         1 MOL     -0.633898
    161 H72        -7.6270   -3.7390    0.7900 hn        1 MOL      0.200151
    162 H73        -6.8210   -4.9620    2.5660 h1        1 MOL      0.046152
    163 H74        -4.3610   -4.7350    3.2060 hc        1 MOL     -0.022542
    164 H75        -4.3650   -3.2750    2.2590 hc        1 MOL     -0.022542
    165 H76        -4.8740   -4.4210    0.2470 hc        1 MOL     -0.059786
    166 H77        -4.7730   -5.9540    1.0560 hc        1 MOL     -0.059786
    167 N15        -7.9460   -3.0130    3.9990 n         1 MOL     -0.283008
    168 C54        -8.4580   -2.0560    5.1150 c3        1 MOL     -0.189586
    169 H78        -8.8310   -2.6440    5.9540 h1        1 MOL      0.116306
    170 H79        -7.6400   -1.4190    5.4520 h1        1 MOL      0.116306
    171 H80        -9.2620   -1.4340    4.7200 h1        1 MOL      0.116306
    172 H81        -8.4450   -3.1600    3.1290 hn        1 MOL      0.183104
    173 Ca1        -1.1530   -1.7330    0.6970 Ca        1 MOL      1.711420
    174 O23         0.3290   -3.1170    2.8200 oh        1 MOL     -0.849017
    175 H82         1.2320   -3.0680    3.1420 ho        1 MOL      0.414440
    176 H83         0.1470   -4.0590    2.7850 ho        1 MOL      0.414440
    177 O24        -1.6140   -0.6420    3.0620 oh        1 MOL     -0.849017
    178 H84        -0.8570   -0.3650    3.5830 ho        1 MOL      0.414440
    179 H85        -2.3630   -0.5380    3.6550 ho        1 MOL      0.414440
    180 O25         0.1610   -3.9560   -0.4630 oh        1 MOL     -0.849017
    181 H86         0.6560   -4.7110   -0.7790 ho        1 MOL      0.414440
    182 H87        -0.7300   -4.2930   -0.3340 ho        1 MOL      0.414440
    183 O26        -3.6720   -1.2730    0.5670 oh        1 MOL     -0.849017
    184 H88        -4.1860   -0.6400    0.0630 ho        1 MOL      0.414440
    185 H89        -4.2900   -1.6290    1.2000 ho        1 MOL      0.414440
@<TRIPOS>BOND
     1    1    2 1   
     2    1    4 1   
     3    1    5 1   
     4    1    6 1   
     5    2    3 2   
     6    2    7 1   
     7    7    8 1   
     8    7   15 1   
     9    8    9 1   
    10    8   11 1   
    11    8   16 1   
    12    9   10 2   
    13    9   19 1   
    14   11   12 1   
    15   11   17 1   
    16   11   18 1   
    17   12   13 1   
    18   12   14 1   
    19   19   20 1   
    20   19   28 1   
    21   20   21 1   
    22   20   23 1   
    23   20   29 1   
    24   21   22 2   
    25   21   41 1   
    26   23   24 1   
    27   23   30 1   
    28   23   31 1   
    29   24   25 1   
    30   24   32 1   
    31   24   33 1   
    32   25   26 1   
    33   25   34 1   
    34   25   35 1   
    35   26   27 1   
    36   26   36 1   
    37   26   37 1   
    38   27   38 1   
    39   27   39 1   
    40   27   40 1   
    41   41   42 1   
    42   41   49 1   
    43   42   43 1   
    44   42   45 1   
    45   42   50 1   
    46   43   44 2   
    47   43   53 1   
    48   45   46 1   
    49   45   51 1   
    50   45   52 1   
    51   46   47 1   
    52   46   48 1   
    53   53   54 1   
    54   53   57 1   
    55   54   55 1   
    56   54   58 1   
    57   54   59 1   
    58   55   56 2   
    59   55   60 1   
    60   60   61 1   
    61   60   68 1   
    62   61   62 1   
    63   61   64 1   
    64   61   69 1   
    65   62   63 2   
    66   62   74 1   
    67   64   65 1   
    68   64   70 1   
    69   64   71 1   
    70   65   66 1   
    71   65   67 2   
    72   66   72 1   
    73   66   73 1   
    74   74   75 1   
    75   74   78 1   
    76   75   76 1   
    77   75   79 1   
    78   75   80 1   
    79   76   77 2   
    80   76   81 1   
    81   81   82 1   
    82   81   93 1   
    83   82   83 1   
    84   82   85 1   
    85   82   94 1   
    86   83   84 2   
    87   83  102 1   
    88   85   86 1   
    89   85   95 1   
    90   85   96 1   
    91   86   87 ar  
    92   86   88 ar  
    93   87   89 ar  
    94   87   97 1   
    95   88   90 ar  
    96   88   98 1   
    97   89   91 ar  
    98   89   99 1   
    99   90   91 ar  
   100   90  100 1   
   101   91   92 1   
   102   92  101 1   
   103  102  103 1   
   104  102  110 1   
   105  103  104 1   
   106  103  106 1   
   107  103  111 1   
   108  104  105 2   
   109  104  121 1   
   110  106  107 1   
   111  106  108 1   
   112  106  112 1   
   113  107  109 1   
   114  107  113 1   
   115  107  114 1   
   116  108  115 1   
   117  108  116 1   
   118  108  117 1   
   119  109  118 1   
   120  109  119 1   
   121  109  120 1   
   122  121  122 1   
   123  121  127 1   
   124  122  123 1   
   125  122  125 1   
   126  122  128 1   
   127  123  124 2   
   128  123  132 1   
   129  125  126 1   
   130  125  129 1   
   131  125  130 1   
   132  126  131 1   
   133  132  133 1   
   134  132  137 1   
   135  133  134 1   
   136  133  136 1   
   137  133  138 1   
   138  134  135 2   
   139  134  142 1   
   140  136  139 1   
   141  136  140 1   
   142  136  141 1   
   143  142  143 1   
   144  142  147 1   
   145  143  144 1   
   146  143  146 1   
   147  143  148 1   
   148  144  145 2   
   149  144  152 1   
   150  146  149 1   
   151  146  150 1   
   152  146  151 1   
   153  152  153 1   
   154  152  161 1   
   155  153  154 1   
   156  153  156 1   
   157  153  162 1   
   158  154  155 2   
   159  154  167 1   
   160  156  157 1   
   161  156  163 1   
   162  156  164 1   
   163  157  158 1   
   164  157  165 1   
   165  157  166 1   
   166  158  159 1   
   167  158  160 1   
   168  167  168 1   
   169  167  172 1   
   170  168  169 1   
   171  168  170 1   
   172  168  171 1   
   173  174  175 1   
   174  174  176 1   
   175  177  178 1   
   176  177  179 1   
   177  180  181 1   
   178  180  182 1   
   179  183  184 1   
   180  183  185 1   
@<TRIPOS>SUBSTRUCTURE
     1 MOL         1 TEMP              0 ****  ****    0 ROOT
