@<TRIPOS>MOLECULE
MOL
  194   186     1     0     0
SMALL
resp


@<TRIPOS>ATOM
      1 C1          0.1410   -3.7280    3.4390 c3        1 MOL     -0.399359
      2 C2         -1.2780   -3.3460    2.9950 c         1 MOL      0.777396
      3 O1         -1.5510   -3.2180    1.8200 o         1 MOL     -0.610051
      4 H1          0.3440   -3.2940    4.4180 hc        1 MOL      0.102977
      5 H2          0.2230   -4.8130    3.5000 hc        1 MOL      0.102977
      6 H3          0.8630   -3.3480    2.7170 hc        1 MOL      0.102977
      7 N1         -2.2260   -3.0780    3.8520 n         1 MOL     -0.599924
      8 C3         -3.5990   -2.6960    3.4140 c3        1 MOL      0.020864
      9 C4         -3.7050   -1.3190    2.7750 c         1 MOL      0.593400
     10 O2         -4.5520   -1.0570    1.9430 o         1 MOL     -0.538311
     11 C5         -4.6340   -2.7730    4.5230 c3        1 MOL     -0.241932
     12 C6         -4.7950   -4.1570    5.1150 c         1 MOL      0.737077
     13 O3         -5.9320   -4.5620    5.3570 o         1 MOL     -0.610728
     14 O4         -3.8400   -4.8820    5.3980 o         1 MOL     -0.610728
     15 H4         -2.1460   -3.1140    4.8660 hn        1 MOL      0.315641
     16 H5         -3.8560   -3.4210    2.6410 h1        1 MOL      0.171527
     17 H6         -5.6120   -2.4540    4.1680 hc        1 MOL      0.059767
     18 H7         -4.2970   -2.1810    5.3760 hc        1 MOL      0.059767
     19 N2         -2.7470   -0.4620    2.9790 n         1 MOL     -0.475027
     20 C7         -2.5840    0.8390    2.2860 c3        1 MOL     -0.165029
     21 C8         -3.8260    1.7080    2.5990 c         1 MOL      0.802545
     22 O5         -4.2380    1.7300    3.7440 o         1 MOL     -0.536981
     23 C9         -1.3100    1.4450    2.8290 c3        1 MOL      0.290830
     24 C10        -0.8960    2.7630    2.1670 c3        1 MOL      0.038579
     25 C11         0.4630    3.2420    2.5320 c3        1 MOL     -0.085585
     26 C12         0.8590    4.6330    2.0530 c3        1 MOL      0.502249
     27 N3         -0.0580    5.6600    2.5320 n4        1 MOL     -0.783161
     28 H8         -2.0080   -0.7700    3.5920 hn        1 MOL      0.292643
     29 H9         -2.4210    0.6250    1.2310 h1        1 MOL      0.136769
     30 H10        -0.4980    0.7120    2.7490 hc        1 MOL     -0.061247
     31 H11        -1.3600    1.6620    3.8970 hc        1 MOL     -0.061247
     32 H12        -1.6580    3.5060    2.3800 hc        1 MOL     -0.104085
     33 H13        -0.9020    2.5270    1.1030 hc        1 MOL     -0.104085
     34 H14         1.1760    2.5940    2.0480 hc        1 MOL      0.083616
     35 H15         0.4820    3.1970    3.6200 hc        1 MOL      0.083616
     36 H16         0.8400    4.6780    0.9640 hx        1 MOL     -0.064353
     37 H17         1.8780    4.8310    2.3870 hx        1 MOL     -0.064353
     38 H18         0.0950    6.5550    2.1000 hn        1 MOL      0.368501
     39 H19        -1.0570    5.5020    2.4690 hn        1 MOL      0.368501
     40 H20         0.0280    5.7590    3.5260 hn        1 MOL      0.368501
     41 N4         -4.4850    2.4010    1.6310 n         1 MOL     -0.545756
     42 C13        -5.8600    2.8620    1.7150 c3        1 MOL     -0.002661
     43 C14        -6.8930    1.9550    1.0620 c         1 MOL      0.596092
     44 O6         -8.0420    2.3150    0.9270 o         1 MOL     -0.567861
     45 C15        -6.0370    4.3400    1.4270 c3        1 MOL      0.008164
     46 C16        -5.4690    4.7830    0.1270 c         1 MOL      0.838640
     47 O7         -5.1000    5.9650   -0.0270 o         1 MOL     -0.822106
     48 O8         -5.4830    3.9970   -0.8690 o         1 MOL     -0.822106
     49 H21        -4.0790    2.4940    0.7090 hn        1 MOL      0.134175
     50 H22        -6.1400    2.8450    2.7670 h1        1 MOL      0.065713
     51 H23        -5.5400    4.9440    2.1780 hc        1 MOL      0.026827
     52 H24        -7.0680    4.6770    1.4510 hc        1 MOL      0.026827
     53 N5         -6.4520    0.7380    0.7010 n         1 MOL     -0.268459
     54 C17        -7.2210   -0.3760    0.3690 c3        1 MOL      0.004395
     55 C18        -7.4020   -1.3610    1.5140 c         1 MOL      0.475044
     56 O9         -8.0160   -1.1010    2.5510 o         1 MOL     -0.537662
     57 H25        -5.4820    0.6330    0.9310 hn        1 MOL      0.229659
     58 H26        -6.5230   -0.8350   -0.3370 h1        1 MOL      0.029875
     59 H27        -8.1180   -0.0980   -0.1890 h1        1 MOL      0.029875
     60 N6         -7.0000   -2.6000    1.4140 n         1 MOL     -0.240915
     61 C19        -6.3580   -3.2470    0.2860 c3        1 MOL     -0.016387
     62 C20        -5.6710   -4.5910    0.6970 c         1 MOL      0.333606
     63 O10        -6.2630   -5.5100    1.2690 o         1 MOL     -0.425187
     64 C21        -7.4510   -3.5960   -0.7780 c3        1 MOL     -0.287436
     65 C22        -6.9670   -4.5790   -1.7620 c         1 MOL      0.627792
     66 N7         -6.4410   -4.0300   -2.8410 n         1 MOL     -0.763678
     67 O11        -7.0700   -5.8120   -1.5920 o         1 MOL     -0.499432
     68 H28        -7.1330   -3.1640    2.2460 hn        1 MOL      0.272245
     69 H29        -5.6520   -2.5610   -0.1840 h1        1 MOL      0.086487
     70 H30        -7.6510   -2.6520   -1.2850 hc        1 MOL      0.098119
     71 H31        -8.4000   -3.8920   -0.3370 hc        1 MOL      0.098119
     72 H32        -6.2220   -3.0520   -2.7150 hn        1 MOL      0.361829
     73 H33        -6.1680   -4.5570   -3.6450 hn        1 MOL      0.361829
     74 N8         -4.4030   -4.7930    0.2770 n         1 MOL     -0.302020
     75 C23        -3.5970   -3.9620   -0.5840 c3        1 MOL      0.037666
     76 C24        -2.3210   -4.7100   -1.0100 c         1 MOL      0.670424
     77 O12        -2.2730   -5.9850   -0.9390 o         1 MOL     -0.549264
     78 H34        -3.8660   -5.5610    0.6470 hn        1 MOL      0.280642
     79 H35        -3.2060   -3.1560    0.0460 h1        1 MOL     -0.032505
     80 H36        -4.1280   -3.6180   -1.4730 h1        1 MOL     -0.032505
     81 N9         -1.3060   -3.9960   -1.5060 n         1 MOL     -0.650705
     82 C25         0.0440   -4.5190   -1.8680 c3        1 MOL      0.210782
     83 C26         1.1770   -3.5660   -1.2870 c         1 MOL      0.651999
     84 O13         0.8690   -2.4240   -1.0280 o         1 MOL     -0.529942
     85 C27         0.0080   -4.5970   -3.3590 c3        1 MOL     -0.261899
     86 C28         1.2290   -5.3360   -3.7950 ca        1 MOL      0.106520
     87 C29         2.2630   -4.6750   -4.5090 ca        1 MOL     -0.158814
     88 C30         1.3170   -6.6770   -3.5230 ca        1 MOL     -0.158814
     89 C31         3.4650   -5.4590   -4.8570 ca        1 MOL     -0.314277
     90 C32         2.4780   -7.4220   -3.7350 ca        1 MOL     -0.314277
     91 C33         3.4910   -6.8380   -4.4970 ca        1 MOL      0.365715
     92 O14         4.6410   -7.5750   -4.7720 oh        1 MOL     -0.512940
     93 H37        -1.4280   -3.0040   -1.6110 hn        1 MOL      0.317175
     94 H38         0.1100   -5.5450   -1.5110 h1        1 MOL      0.046417
     95 H39        -0.0340   -3.5830   -3.7630 hc        1 MOL      0.100967
     96 H40        -0.8300   -5.2660   -3.5630 hc        1 MOL      0.100967
     97 H41         2.2030   -3.6160   -4.6870 ha        1 MOL      0.157691
     98 H42         0.4870   -7.2150   -3.0800 ha        1 MOL      0.157691
     99 H43         4.2600   -5.1510   -5.5210 ha        1 MOL      0.167125
    100 H44         2.5110   -8.4440   -3.4110 ha        1 MOL      0.167125
    101 H45         4.4640   -8.4780   -4.5200 ho        1 MOL      0.373643
    102 N10         2.4590   -3.9040   -1.1230 n         1 MOL     -0.576751
    103 C34         3.5930   -2.9990   -0.6950 c3        1 MOL     -0.089593
    104 C35         3.7850   -1.8090   -1.6410 c         1 MOL      0.390746
    105 O15         3.3170   -1.7640   -2.8400 o         1 MOL     -0.500324
    106 C36         4.8510   -3.8420   -0.5010 c3        1 MOL      0.258211
    107 C37         5.3770   -4.5120   -1.8510 c3        1 MOL     -0.029285
    108 C38         5.9070   -3.0230    0.2010 c3        1 MOL     -0.208512
    109 C39         6.5980   -5.4040   -1.5850 c3        1 MOL     -0.253821
    110 H46         2.6480   -4.8420   -1.4530 hn        1 MOL      0.240548
    111 H47         3.3390   -2.6070    0.2870 h1        1 MOL      0.145122
    112 H48         4.5950   -4.6400    0.1960 hc        1 MOL      0.008103
    113 H49         5.7390   -3.6630   -2.4260 hc        1 MOL      0.067006
    114 H50         4.6290   -5.1180   -2.3700 hc        1 MOL      0.067006
    115 H51         6.2570   -2.2470   -0.4930 hc        1 MOL      0.057200
    116 H52         5.4670   -2.6660    1.1340 hc        1 MOL      0.057200
    117 H53         6.7580   -3.6680    0.4250 hc        1 MOL      0.057200
    118 H54         6.7950   -5.9710   -2.4920 hc        1 MOL      0.063648
    119 H55         7.4280   -4.7130   -1.4160 hc        1 MOL      0.063648
    120 H56         6.4300   -6.0330   -0.7270 hc        1 MOL      0.063648
    121 N11         4.3790   -0.7470   -1.1430 n         1 MOL     -0.258261
    122 C40         4.7510    0.4590   -1.9580 c3        1 MOL      0.082201
    123 C41         4.7910    1.7010   -1.1440 c         1 MOL      0.488418
    124 O16         5.2540    1.6260   -0.0350 o         1 MOL     -0.349434
    125 C42         6.1160    0.1130   -2.6050 c3        1 MOL     -0.120075
    126 O17         7.2410    0.3300   -1.7150 oh        1 MOL     -0.368563
    127 H57         4.6670   -0.7830   -0.1810 hn        1 MOL      0.179320
    128 H58         4.0350    0.5200   -2.7750 h1        1 MOL      0.055615
    129 H59         6.2650    0.7450   -3.4860 h1        1 MOL      0.073456
    130 H60         6.0950   -0.9510   -2.8270 h1        1 MOL      0.073456
    131 H61         7.8850    0.7450   -2.2840 ho        1 MOL      0.378938
    132 N12         4.3880    2.8070   -1.6940 n         1 MOL     -0.489531
    133 C43         4.5550    4.0390   -1.0010 c3        1 MOL     -0.006237
    134 C44         5.9610    4.2930   -0.4570 c         1 MOL      0.584086
    135 O18         6.1620    4.6790    0.6850 o         1 MOL     -0.457425
    136 C45         3.4580    4.2070   -0.0040 c3        1 MOL     -0.424802
    137 H62         4.2060    2.7750   -2.6890 hn        1 MOL      0.309749
    138 H63         4.4220    4.7120   -1.8480 h1        1 MOL      0.063541
    139 H64         2.4910    4.0190   -0.4700 hc        1 MOL      0.142297
    140 H65         3.6180    3.4410    0.7550 hc        1 MOL      0.142297
    141 H66         3.5300    5.1900    0.4590 hc        1 MOL      0.142297
    142 N13         6.9850    3.9430   -1.2380 n         1 MOL     -0.567987
    143 C46         8.3760    4.1190   -0.7590 c3        1 MOL      0.145803
    144 C47         8.7640    3.2940    0.5710 c         1 MOL      0.324726
    145 O19         9.7510    3.5430    1.2410 o         1 MOL     -0.465100
    146 C48         8.7810    5.6000   -0.7510 c3        1 MOL     -0.238141
    147 H67         6.8680    3.6700   -2.2040 hn        1 MOL      0.317447
    148 H68         8.9670    3.6470   -1.5470 h1        1 MOL      0.043189
    149 H69         9.8320    5.8670   -0.5980 hc        1 MOL      0.077622
    150 H70         8.5270    6.0250   -1.7210 hc        1 MOL      0.077622
    151 H71         8.0740    6.0810   -0.0790 hc        1 MOL      0.077622
    152 N14         7.9270    2.2540    0.9410 n         1 MOL      0.050745
    153 C49         8.3420    1.4470    2.0360 c3        1 MOL     -0.050810
    154 C50         9.3770    0.4340    1.6960 c         1 MOL      0.387042
    155 O20        10.2160    0.0230    2.5480 o         1 MOL     -0.500213
    156 C51         7.0790    0.7430    2.6440 c3        1 MOL      0.236160
    157 C52         7.3300    0.5760    4.1040 c3        1 MOL     -0.244694
    158 C53         6.9280    1.7690    4.8550 c         1 MOL      0.718179
    159 O21         5.7220    2.0540    5.0460 o         1 MOL     -0.624811
    160 O22         7.8510    2.4470    5.4040 o         1 MOL     -0.624811
    161 H72         7.0890    2.1340    0.3790 hn        1 MOL      0.005838
    162 H73         8.7290    2.1770    2.7480 h1        1 MOL      0.130155
    163 H74         6.8430   -0.2070    2.1570 hc        1 MOL     -0.075387
    164 H75         6.2300    1.4140    2.5920 hc        1 MOL     -0.075387
    165 H76         8.3340    0.3460    4.4300 hc        1 MOL      0.048425
    166 H77         6.7730   -0.2970    4.4240 hc        1 MOL      0.048425
    167 N15         9.4780    0.1010    0.4100 n         1 MOL     -0.186527
    168 C54        10.7830   -0.3480   -0.1730 c3        1 MOL     -0.155703
    169 H78        10.6340   -0.6430   -1.2120 h1        1 MOL      0.085213
    170 H79        11.5030    0.4700   -0.1290 h1        1 MOL      0.085213
    171 H80        11.1630   -1.1970    0.3940 h1        1 MOL      0.085213
    172 H81         8.7410    0.3720   -0.2120 hn        1 MOL      0.019767
    173 Ca1        -4.9990    5.8360   -2.7850 Ca        1 MOL      1.693121
    174 O23        -7.5190    5.5510   -2.1000 oh        1 MOL     -0.796222
    175 H82        -8.1960    5.6750   -1.4420 ho        1 MOL      0.381319
    176 H83        -7.9420    5.0570   -2.7910 ho        1 MOL      0.381319
    177 O24        -5.1760    8.3660   -2.3340 oh        1 MOL     -0.796222
    178 H84        -6.0100    8.7910   -2.1360 ho        1 MOL      0.381319
    179 H85        -4.5240    9.0440   -2.1760 ho        1 MOL      0.381319
    180 O25        -2.4580    6.3800   -2.2530 oh        1 MOL     -0.796222
    181 H86        -1.7730    7.0430   -2.1750 ho        1 MOL      0.381319
    182 H87        -2.0240    5.5690   -1.9980 ho        1 MOL      0.381319
    183 O26        -6.7400    7.1880   -4.5930 oh        1 MOL     -0.796222
    184 H88        -7.2080    6.6950   -5.2600 ho        1 MOL      0.381319
    185 H89        -6.6940    8.0820   -4.9340 ho        1 MOL      0.381319
    186 O27        -3.7410    6.3450   -5.0410 oh        1 MOL     -0.796222
    187 H90        -4.1890    6.8680   -5.6990 ho        1 MOL      0.381319
    188 H91        -2.8110    6.4940   -5.1950 ho        1 MOL      0.381319
    189 O28        -6.3570    3.7390   -4.3210 oh        1 MOL     -0.796222
    190 H92        -6.5730    3.3010   -5.1510 ho        1 MOL      0.381319
    191 H93        -6.6900    3.1470   -3.6430 ho        1 MOL      0.381319
    192 O29        -3.2540    3.8470   -3.4840 oh        1 MOL     -0.796222
    193 H94        -3.3760    3.3570   -4.2970 ho        1 MOL      0.381319
    194 H95        -2.3110    3.8510   -3.3540 ho        1 MOL      0.381319
@<TRIPOS>BOND
     1    1    2 1   
     2    1    4 1   
     3    1    5 1   
     4    1    6 1   
     5    2    3 2   
     6    2    7 1   
     7    7    8 1   
     8    7   15 1   
     9    8    9 1   
    10    8   11 1   
    11    8   16 1   
    12    9   10 2   
    13    9   19 1   
    14   11   12 1   
    15   11   17 1   
    16   11   18 1   
    17   12   13 1   
    18   12   14 1   
    19   19   20 1   
    20   19   28 1   
    21   20   21 1   
    22   20   23 1   
    23   20   29 1   
    24   21   22 2   
    25   21   41 1   
    26   23   24 1   
    27   23   30 1   
    28   23   31 1   
    29   24   25 1   
    30   24   32 1   
    31   24   33 1   
    32   25   26 1   
    33   25   34 1   
    34   25   35 1   
    35   26   27 1   
    36   26   36 1   
    37   26   37 1   
    38   27   38 1   
    39   27   39 1   
    40   27   40 1   
    41   41   42 1   
    42   41   49 1   
    43   42   43 1   
    44   42   45 1   
    45   42   50 1   
    46   43   44 2   
    47   43   53 1   
    48   45   46 1   
    49   45   51 1   
    50   45   52 1   
    51   46   47 1   
    52   46   48 1   
    53   53   54 1   
    54   53   57 1   
    55   54   55 1   
    56   54   58 1   
    57   54   59 1   
    58   55   56 2   
    59   55   60 1   
    60   60   61 1   
    61   60   68 1   
    62   61   62 1   
    63   61   64 1   
    64   61   69 1   
    65   62   63 2   
    66   62   74 1   
    67   64   65 1   
    68   64   70 1   
    69   64   71 1   
    70   65   66 1   
    71   65   67 2   
    72   66   72 1   
    73   66   73 1   
    74   74   75 1   
    75   74   78 1   
    76   75   76 1   
    77   75   79 1   
    78   75   80 1   
    79   76   77 2   
    80   76   81 1   
    81   81   82 1   
    82   81   93 1   
    83   82   83 1   
    84   82   85 1   
    85   82   94 1   
    86   83   84 2   
    87   83  102 1   
    88   85   86 1   
    89   85   95 1   
    90   85   96 1   
    91   86   87 ar  
    92   86   88 ar  
    93   87   89 ar  
    94   87   97 1   
    95   88   90 ar  
    96   88   98 1   
    97   89   91 ar  
    98   89   99 1   
    99   90   91 ar  
   100   90  100 1   
   101   91   92 1   
   102   92  101 1   
   103  102  103 1   
   104  102  110 1   
   105  103  104 1   
   106  103  106 1   
   107  103  111 1   
   108  104  105 2   
   109  104  121 1   
   110  106  107 1   
   111  106  108 1   
   112  106  112 1   
   113  107  109 1   
   114  107  113 1   
   115  107  114 1   
   116  108  115 1   
   117  108  116 1   
   118  108  117 1   
   119  109  118 1   
   120  109  119 1   
   121  109  120 1   
   122  121  122 1   
   123  121  127 1   
   124  122  123 1   
   125  122  125 1   
   126  122  128 1   
   127  123  124 2   
   128  123  132 1   
   129  125  126 1   
   130  125  129 1   
   131  125  130 1   
   132  126  131 1   
   133  132  133 1   
   134  132  137 1   
   135  133  134 1   
   136  133  136 1   
   137  133  138 1   
   138  134  135 2   
   139  134  142 1   
   140  136  139 1   
   141  136  140 1   
   142  136  141 1   
   143  142  143 1   
   144  142  147 1   
   145  143  144 1   
   146  143  146 1   
   147  143  148 1   
   148  144  145 2   
   149  144  152 1   
   150  146  149 1   
   151  146  150 1   
   152  146  151 1   
   153  152  153 1   
   154  152  161 1   
   155  153  154 1   
   156  153  156 1   
   157  153  162 1   
   158  154  155 2   
   159  154  167 1   
   160  156  157 1   
   161  156  163 1   
   162  156  164 1   
   163  157  158 1   
   164  157  165 1   
   165  157  166 1   
   166  158  159 1   
   167  158  160 1   
   168  167  168 1   
   169  167  172 1   
   170  168  169 1   
   171  168  170 1   
   172  168  171 1   
   173  174  175 1   
   174  174  176 1   
   175  177  178 1   
   176  177  179 1   
   177  180  181 1   
   178  180  182 1   
   179  183  184 1   
   180  183  185 1   
   181  186  187 1   
   182  186  188 1   
   183  189  190 1   
   184  189  191 1   
   185  192  193 1   
   186  192  194 1   
@<TRIPOS>SUBSTRUCTURE
     1 MOL         1 TEMP              0 ****  ****    0 ROOT
