@<TRIPOS>MOLECULE
MOL
  189   185     1     0     0
SMALL
resp


@<TRIPOS>ATOM
      1 C1          4.3520    4.2300   -3.5780 c3        1 MOL     -0.369902
      2 C2          4.9760    3.3570   -2.5150 c         1 MOL      0.728999
      3 O1          4.2640    2.8480   -1.6200 o         1 MOL     -0.630075
      4 H1          4.7570    3.9590   -4.5530 hc        1 MOL      0.099546
      5 H2          3.2710    4.0840   -3.5810 hc        1 MOL      0.099546
      6 H3          4.5770    5.2760   -3.3700 hc        1 MOL      0.099546
      7 N1          6.2910    3.0430   -2.5620 n         1 MOL     -0.613362
      8 C3          7.0560    2.1130   -1.7110 c3        1 MOL      0.029380
      9 C4          6.2290    0.8160   -1.3860 c         1 MOL      0.323164
     10 O2          5.7960    0.5190   -0.2870 o         1 MOL     -0.318921
     11 C5          7.8910    2.7500   -0.5420 c3        1 MOL      0.051589
     12 C6          7.2130    3.8950    0.1570 c         1 MOL      0.675305
     13 O3          6.0440    3.6950    0.5280 o         1 MOL     -0.722511
     14 O4          7.8730    4.9220    0.4150 o         1 MOL     -0.722511
     15 H4          6.7910    3.5380   -3.2910 hn        1 MOL      0.323378
     16 H5          7.8340    1.7020   -2.3520 h1        1 MOL      0.072166
     17 H6          8.8740    3.0670   -0.9020 hc        1 MOL     -0.009992
     18 H7          8.0760    2.0060    0.2320 hc        1 MOL     -0.009992
     19 N2          5.8780    0.1810   -2.5470 n         1 MOL     -0.421402
     20 C7          5.2840   -1.2020   -2.7390 c3        1 MOL      0.094963
     21 C8          5.9560   -2.4080   -1.9800 c         1 MOL      0.339062
     22 O5          6.5620   -3.2250   -2.6600 o         1 MOL     -0.534680
     23 C9          3.7560   -1.1570   -2.5270 c3        1 MOL      0.331611
     24 C10         3.0880   -2.5350   -2.9530 c3        1 MOL      0.039757
     25 C11         3.0830   -0.0050   -3.2360 c3        1 MOL     -0.255756
     26 C12         3.2250   -2.9230   -4.4400 c3        1 MOL     -0.295769
     27 H8          6.0090    0.6960   -3.4100 hn        1 MOL      0.260749
     28 H9          5.3910   -1.4650   -3.7870 h1        1 MOL      0.006141
     29 H10         3.5760   -1.1020   -1.4470 hc        1 MOL     -0.281424
     30 H11         2.0110   -2.5320   -2.7570 hc        1 MOL      0.075517
     31 H12         3.5560   -3.2990   -2.3310 hc        1 MOL      0.075517
     32 H13         1.9940   -0.0730   -3.1700 hc        1 MOL      0.051724
     33 H14         3.3800    0.9030   -2.7110 hc        1 MOL      0.051724
     34 H15         3.2950    0.0330   -4.3060 hc        1 MOL      0.051724
     35 H16         3.1770   -2.1010   -5.1460 hc        1 MOL      0.047161
     36 H17         4.2280   -3.3530   -4.3950 hc        1 MOL      0.047161
     37 H18         2.5080   -3.7200   -4.6160 hc        1 MOL      0.047161
     38 N3          6.0250   -2.3130   -0.6360 n         1 MOL      0.016462
     39 C13         6.8770   -3.1830    0.2340 c3        1 MOL     -0.027445
     40 C14         6.2290   -4.5990    0.4820 c         1 MOL      0.456456
     41 O6          7.0310   -5.5510    0.5140 o         1 MOL     -0.571034
     42 C15         7.1010   -2.4420    1.6000 c3        1 MOL     -0.063035
     43 C16         8.0440   -1.2750    1.3570 c         1 MOL      0.677973
     44 O7          8.0630   -0.3560    2.2220 o         1 MOL     -0.705779
     45 O8          8.8240   -1.2790    0.3380 o         1 MOL     -0.705779
     46 H19         5.5460   -1.6070   -0.1010 hn        1 MOL      0.170736
     47 H20         7.7920   -3.2780   -0.3490 h1        1 MOL      0.079696
     48 H21         7.6370   -3.1560    2.2380 hc        1 MOL      0.035820
     49 H22         6.1950   -2.0000    2.0050 hc        1 MOL      0.035820
     50 N4          4.9080   -4.8250    0.6340 n         1 MOL     -0.445915
     51 C17         3.9160   -3.7740    0.7320 c3        1 MOL      0.258894
     52 C18         2.6430   -4.2660    1.4870 c         1 MOL      0.582240
     53 O9          2.2570   -5.3840    1.2230 o         1 MOL     -0.589348
     54 H23         4.6110   -5.7820    0.7560 hn        1 MOL      0.294200
     55 H24         3.6200   -3.5080   -0.2890 h1        1 MOL     -0.117815
     56 H25         4.3160   -2.8780    1.2110 h1        1 MOL     -0.117815
     57 N5          1.9290   -3.4140    2.1520 n         1 MOL     -0.474622
     58 C19         2.2100   -2.0000    2.5400 c3        1 MOL      0.002620
     59 C20         2.5200   -1.0550    1.4400 c         1 MOL      0.653507
     60 O10         3.5440   -0.3930    1.4180 o         1 MOL     -0.673224
     61 C21         3.3700   -2.0230    3.6050 c3        1 MOL     -0.081421
     62 C22         3.0050   -2.7890    4.8780 c         1 MOL      0.688034
     63 O11         2.4230   -2.1100    5.7560 o         1 MOL     -0.722133
     64 O12         3.4630   -3.9360    4.9640 o         1 MOL     -0.722133
     65 H26         1.1580   -3.9240    2.5510 hn        1 MOL      0.296418
     66 H27         1.3270   -1.6220    3.0590 h1        1 MOL      0.069752
     67 H28         3.4950   -0.9990    3.9500 hc        1 MOL      0.008290
     68 H29         4.2200   -2.4600    3.0900 hc        1 MOL      0.008290
     69 N6          1.5870   -0.6930    0.5400 n         1 MOL     -0.342564
     70 C23         0.1960   -1.0900    0.5530 c3        1 MOL     -0.050476
     71 C24        -0.2170   -2.3640   -0.1420 c         1 MOL      0.556056
     72 O13         0.3540   -2.8790   -1.0580 o         1 MOL     -0.541656
     73 H30         1.7490    0.1530    0.0060 hn        1 MOL      0.296092
     74 H31        -0.4140   -0.3390    0.0480 h1        1 MOL      0.044842
     75 H32        -0.1100   -1.1910    1.5920 h1        1 MOL      0.044842
     76 N7         -1.2980   -2.9350    0.3950 n         1 MOL     -0.216742
     77 C25        -1.9380   -4.1930   -0.0400 c3        1 MOL     -0.300905
     78 C26        -2.7780   -4.0590   -1.3750 c         1 MOL      0.502719
     79 O14        -3.2260   -5.0600   -1.9220 o         1 MOL     -0.531167
     80 C27        -2.6420   -4.9180    1.1700 c3        1 MOL      0.015846
     81 C28        -3.7190   -3.9770    1.8430 c3        1 MOL     -0.507949
     82 C29        -4.8060   -3.5990    0.8490 c         1 MOL      0.469893
     83 N8         -5.6410   -4.5660    0.4210 n         1 MOL     -0.728714
     84 O15        -5.0030   -2.4710    0.4620 o         1 MOL     -0.418412
     85 H33        -1.8220   -2.4600    1.1180 hn        1 MOL      0.171027
     86 H34        -1.1050   -4.8690   -0.2620 h1        1 MOL      0.191188
     87 H35        -1.9770   -5.1370    1.9980 hc        1 MOL      0.062086
     88 H36        -3.1020   -5.8450    0.8310 hc        1 MOL      0.062086
     89 H37        -3.2480   -3.0690    2.2290 hc        1 MOL      0.214517
     90 H38        -4.1760   -4.6010    2.6000 hc        1 MOL      0.214517
     91 H39        -5.6440   -5.5260    0.7460 hn        1 MOL      0.365368
     92 H40        -6.3400   -4.3160   -0.2650 hn        1 MOL      0.365368
     93 N9         -2.9790   -2.8130   -1.8000 n         1 MOL     -0.001705
     94 C30        -3.4280   -2.4740   -3.1210 c3        1 MOL     -0.447710
     95 C31        -4.8700   -1.9470   -3.2440 c         1 MOL      0.595087
     96 O16        -5.2360   -1.8720   -4.3930 o         1 MOL     -0.564424
     97 C32        -2.5350   -1.3720   -3.8060 c3        1 MOL      0.244292
     98 C33        -1.0030   -1.7880   -3.8630 c3        1 MOL     -0.215388
     99 C34        -2.6580    0.0090   -3.2280 c3        1 MOL     -0.215388
    100 H41        -2.7390   -2.1250   -1.1140 hn        1 MOL      0.134643
    101 H42        -3.3180   -3.3720   -3.7230 h1        1 MOL      0.178947
    102 H43        -2.8160   -1.1790   -4.8380 hc        1 MOL      0.020798
    103 H44        -0.4310   -1.5270   -2.9680 hc        1 MOL      0.046834
    104 H45        -0.9380   -2.8520   -4.0670 hc        1 MOL      0.046834
    105 H46        -0.5070   -1.2270   -4.6570 hc        1 MOL      0.046834
    106 H47        -2.6190   -0.1110   -2.1490 hc        1 MOL      0.046834
    107 H48        -1.8810    0.7140   -3.5420 hc        1 MOL      0.046834
    108 H49        -3.6370    0.4190   -3.4950 hc        1 MOL      0.046834
    109 N10        -5.6380   -1.5440   -2.1770 n         1 MOL     -0.227299
    110 C35        -6.9940   -0.9700   -2.2530 c3        1 MOL     -0.070965
    111 C36        -7.0830    0.4840   -1.6280 c         1 MOL      0.683711
    112 O17        -7.9830    1.1960   -2.0130 o         1 MOL     -0.550515
    113 C37        -8.0290   -1.9330   -1.5810 c3        1 MOL     -0.082488
    114 C38        -8.0700   -3.3530   -2.2140 c         1 MOL      0.638667
    115 N11        -8.2670   -3.4440   -3.5640 n         1 MOL     -0.841525
    116 O18        -7.7280   -4.3130   -1.5320 o         1 MOL     -0.548018
    117 H50        -5.2980   -1.8210   -1.2730 hn        1 MOL      0.211788
    118 H51        -7.3190   -0.8510   -3.2880 h1        1 MOL      0.052643
    119 H52        -9.0350   -1.5570   -1.4440 hc        1 MOL      0.017456
    120 H53        -7.6840   -1.9730   -0.5430 hc        1 MOL      0.017456
    121 H54        -8.2750   -2.6500   -4.1730 hn        1 MOL      0.390730
    122 H55        -8.0830   -4.3560   -3.9640 hn        1 MOL      0.390730
    123 N12        -6.1520    0.8530   -0.6510 n         1 MOL     -0.761236
    124 C39        -6.2270    2.0570    0.1670 c3        1 MOL      0.636261
    125 C40        -4.8390    2.7030    0.4040 c         1 MOL      0.271557
    126 O19        -3.8370    2.0370    0.4350 o         1 MOL     -0.356592
    127 C41        -7.0350    1.7940    1.4200 c3        1 MOL     -0.253626
    128 C42        -6.7400    0.4580    2.0850 ca        1 MOL      0.452866
    129 C43        -7.7150   -0.5900    2.0500 ca        1 MOL     -0.500105
    130 C44        -5.5500    0.2930    2.8170 ca        1 MOL     -0.500105
    131 C45        -7.4490   -1.7600    2.7230 ca        1 MOL      0.006437
    132 C46        -5.2570   -0.8320    3.5430 ca        1 MOL      0.006437
    133 C47        -6.1840   -1.8830    3.4490 ca        1 MOL      0.088646
    134 O20        -5.7980   -3.0770    4.0510 oh        1 MOL     -0.457084
    135 H56        -5.3810    0.2670   -0.3470 hn        1 MOL      0.251099
    136 H57        -6.7590    2.7940   -0.4420 h1        1 MOL     -0.063925
    137 H58        -8.0720    1.8270    1.1000 hc        1 MOL      0.027124
    138 H59        -6.8150    2.5810    2.1520 hc        1 MOL      0.027124
    139 H60        -8.6000   -0.4540    1.4550 ha        1 MOL      0.228434
    140 H61        -4.8360    1.1020    2.9230 ha        1 MOL      0.228434
    141 H62        -8.1000   -2.6230    2.8040 ha        1 MOL      0.107777
    142 H63        -4.2850   -0.9230    4.0120 ha        1 MOL      0.107777
    143 H64        -6.5350   -3.6600    4.2360 ho        1 MOL      0.345034
    144 N13        -4.8790    4.0510    0.7040 n         1 MOL     -0.536249
    145 C48        -3.8150    4.8080    1.2840 c3        1 MOL      0.021917
    146 C49        -2.6920    5.1900    0.3080 c         1 MOL      0.456979
    147 O21        -2.1870    6.2580    0.3990 o         1 MOL     -0.521492
    148 C50        -3.3440    4.3770    2.6950 c3        1 MOL     -0.117578
    149 C51        -4.5690    4.4600    3.6780 c3        1 MOL     -0.131953
    150 C52        -4.2870    4.7760    5.0980 c         1 MOL      0.676429
    151 O22        -4.4600    3.8680    5.9420 o         1 MOL     -0.728986
    152 O23        -3.8580    5.9150    5.4160 o         1 MOL     -0.728986
    153 H65        -5.7020    4.5800    0.4520 hn        1 MOL      0.311995
    154 H66        -4.2450    5.7940    1.4560 h1        1 MOL      0.092065
    155 H67        -2.5640    5.0690    3.0310 hc        1 MOL      0.102796
    156 H68        -2.9490    3.3680    2.7140 hc        1 MOL      0.102796
    157 H69        -5.1270    3.5280    3.7110 hc        1 MOL      0.015517
    158 H70        -5.2120    5.2800    3.3700 hc        1 MOL      0.015517
    159 N14        -2.3260    4.2950   -0.6550 n         1 MOL     -0.370554
    160 C53        -1.1010    4.5030   -1.4470 c3        1 MOL     -0.051836
    161 C54        -1.3620    5.3760   -2.6860 c         1 MOL      0.355649
    162 O24        -0.3680    5.6720   -3.4230 o         1 MOL     -0.553998
    163 C55        -0.6360    3.0980   -1.9490 c3        1 MOL      0.099630
    164 C56        -0.3990    1.9540   -1.0080 c3        1 MOL      0.168083
    165 C57         0.7090    2.3100   -0.0210 c         1 MOL      0.592467
    166 O25         0.5060    3.1990    0.8280 o         1 MOL     -0.671808
    167 O26         1.8990    1.8800   -0.1320 o         1 MOL     -0.671808
    168 H71        -2.8060    3.4100   -0.7420 hn        1 MOL      0.235794
    169 H72        -0.2640    4.9860   -0.9540 h1        1 MOL      0.172253
    170 H73         0.3320    3.1640   -2.4500 hc        1 MOL     -0.003374
    171 H74        -1.3700    2.7410   -2.6680 hc        1 MOL     -0.003374
    172 H75        -0.0400    1.0850   -1.5520 hc        1 MOL     -0.085524
    173 H76        -1.2600    1.6220   -0.4110 hc        1 MOL     -0.085524
    174 N15        -2.5570    5.6920   -3.0340 n         1 MOL     -0.061146
    175 C58        -2.9720    6.4140   -4.2080 c3        1 MOL     -0.373212
    176 H77        -2.5410    7.4150   -4.1890 h1        1 MOL      0.130335
    177 H78        -2.6300    5.8890   -5.0990 h1        1 MOL      0.130335
    178 H79        -4.0600    6.4870   -4.2240 h1        1 MOL      0.130335
    179 H80        -3.2480    5.2430   -2.4550 hn        1 MOL      0.175035
    180 Ca1         4.0850    2.2020    0.8910 Ca        1 MOL      1.756678
    181 O27         2.9110    4.4640    1.0580 oh        1 MOL     -0.910201
    182 H81         3.0200    5.3900    1.3030 ho        1 MOL      0.434778
    183 H82         1.9910    4.2830    1.2010 ho        1 MOL      0.434778
    184 O28         3.2100    2.0690    3.5090 oh        1 MOL     -0.910201
    185 H83         3.2090    2.7920    4.1330 ho        1 MOL      0.434778
    186 H84         2.5130    1.4870    3.8130 ho        1 MOL      0.434778
    187 O29         6.1040    1.4590    2.6120 oh        1 MOL     -0.910201
    188 H85         6.8370    0.8460    2.4860 ho        1 MOL      0.434778
    189 H86         5.7180    1.2010    3.4490 ho        1 MOL      0.434778
@<TRIPOS>BOND
     1    1    2 1   
     2    1    4 1   
     3    1    5 1   
     4    1    6 1   
     5    2    3 2   
     6    2    7 1   
     7    7    8 1   
     8    7   15 1   
     9    8    9 1   
    10    8   11 1   
    11    8   16 1   
    12    9   10 2   
    13    9   19 1   
    14   11   12 1   
    15   11   17 1   
    16   11   18 1   
    17   12   13 1   
    18   12   14 1   
    19   19   20 1   
    20   19   27 1   
    21   20   21 1   
    22   20   23 1   
    23   20   28 1   
    24   21   22 2   
    25   21   38 1   
    26   23   24 1   
    27   23   25 1   
    28   23   29 1   
    29   24   26 1   
    30   24   30 1   
    31   24   31 1   
    32   25   32 1   
    33   25   33 1   
    34   25   34 1   
    35   26   35 1   
    36   26   36 1   
    37   26   37 1   
    38   38   39 1   
    39   38   46 1   
    40   39   40 1   
    41   39   42 1   
    42   39   47 1   
    43   40   41 2   
    44   40   50 1   
    45   42   43 1   
    46   42   48 1   
    47   42   49 1   
    48   43   44 1   
    49   43   45 1   
    50   50   51 1   
    51   50   54 1   
    52   51   52 1   
    53   51   55 1   
    54   51   56 1   
    55   52   53 2   
    56   52   57 1   
    57   57   58 1   
    58   57   65 1   
    59   58   59 1   
    60   58   61 1   
    61   58   66 1   
    62   59   60 2   
    63   59   69 1   
    64   61   62 1   
    65   61   67 1   
    66   61   68 1   
    67   62   63 1   
    68   62   64 1   
    69   69   70 1   
    70   69   73 1   
    71   70   71 1   
    72   70   74 1   
    73   70   75 1   
    74   71   72 2   
    75   71   76 1   
    76   76   77 1   
    77   76   85 1   
    78   77   78 1   
    79   77   80 1   
    80   77   86 1   
    81   78   79 2   
    82   78   93 1   
    83   80   81 1   
    84   80   87 1   
    85   80   88 1   
    86   81   82 1   
    87   81   89 1   
    88   81   90 1   
    89   82   83 1   
    90   82   84 2   
    91   83   91 1   
    92   83   92 1   
    93   93   94 1   
    94   93  100 1   
    95   94   95 1   
    96   94   97 1   
    97   94  101 1   
    98   95   96 2   
    99   95  109 1   
   100   97   98 1   
   101   97   99 1   
   102   97  102 1   
   103   98  103 1   
   104   98  104 1   
   105   98  105 1   
   106   99  106 1   
   107   99  107 1   
   108   99  108 1   
   109  109  110 1   
   110  109  117 1   
   111  110  111 1   
   112  110  113 1   
   113  110  118 1   
   114  111  112 2   
   115  111  123 1   
   116  113  114 1   
   117  113  119 1   
   118  113  120 1   
   119  114  115 1   
   120  114  116 2   
   121  115  121 1   
   122  115  122 1   
   123  123  124 1   
   124  123  135 1   
   125  124  125 1   
   126  124  127 1   
   127  124  136 1   
   128  125  126 2   
   129  125  144 1   
   130  127  128 1   
   131  127  137 1   
   132  127  138 1   
   133  128  129 ar  
   134  128  130 ar  
   135  129  131 ar  
   136  129  139 1   
   137  130  132 ar  
   138  130  140 1   
   139  131  133 ar  
   140  131  141 1   
   141  132  133 ar  
   142  132  142 1   
   143  133  134 1   
   144  134  143 1   
   145  144  145 1   
   146  144  153 1   
   147  145  146 1   
   148  145  148 1   
   149  145  154 1   
   150  146  147 2   
   151  146  159 1   
   152  148  149 1   
   153  148  155 1   
   154  148  156 1   
   155  149  150 1   
   156  149  157 1   
   157  149  158 1   
   158  150  151 1   
   159  150  152 1   
   160  159  160 1   
   161  159  168 1   
   162  160  161 1   
   163  160  163 1   
   164  160  169 1   
   165  161  162 2   
   166  161  174 1   
   167  163  164 1   
   168  163  170 1   
   169  163  171 1   
   170  164  165 1   
   171  164  172 1   
   172  164  173 1   
   173  165  166 1   
   174  165  167 1   
   175  174  175 1   
   176  174  179 1   
   177  175  176 1   
   178  175  177 1   
   179  175  178 1   
   180  181  182 1   
   181  181  183 1   
   182  184  185 1   
   183  184  186 1   
   184  187  188 1   
   185  187  189 1   
@<TRIPOS>SUBSTRUCTURE
     1 MOL         1 TEMP              0 ****  ****    0 ROOT
