@<TRIPOS>MOLECULE
MOL
  178   175     1     0     0
SMALL
resp


@<TRIPOS>ATOM
      1 C1         12.0870   -5.8420    1.9200 c3        1 MOL     -0.350004
      2 C2         11.5530   -4.9630    0.7150 c         1 MOL      0.734383
      3 O1         11.1430   -5.4680   -0.2970 o         1 MOL     -0.613908
      4 H1         12.7810   -6.5940    1.5410 hc        1 MOL      0.091544
      5 H2         12.6020   -5.2030    2.6370 hc        1 MOL      0.091544
      6 H3         11.2490   -6.3370    2.4090 hc        1 MOL      0.091544
      7 N1         11.6030   -3.6170    0.7500 n         1 MOL     -0.644890
      8 C3         12.0530   -2.7050    1.7740 c3        1 MOL      0.067454
      9 C4         12.7850   -1.4940    1.2370 c         1 MOL      0.580707
     10 O2         13.4810   -0.8300    2.0020 o         1 MOL     -0.581535
     11 C5         10.8440   -2.3480    2.5920 c3        1 MOL     -0.241417
     12 C6          9.7180   -1.7260    1.7670 c         1 MOL      0.779041
     13 O3          8.6320   -1.4490    2.3900 o         1 MOL     -0.738948
     14 O4          9.8520   -1.5030    0.5310 o         1 MOL     -0.738948
     15 H4         11.3990   -3.2700   -0.1820 hn        1 MOL      0.302869
     16 H5         12.7470   -3.2400    2.4290 h1        1 MOL      0.070821
     17 H6         11.1710   -1.6060    3.3260 hc        1 MOL      0.074209
     18 H7         10.4320   -3.1640    3.1920 hc        1 MOL      0.074209
     19 N2         12.7370   -1.2000   -0.0580 n         1 MOL     -0.492559
     20 C7         13.5400   -0.2770   -0.8290 c3        1 MOL      0.171993
     21 C8         12.5760    0.7630   -1.4430 c         1 MOL      0.380985
     22 O5         13.0000    1.4120   -2.3920 o         1 MOL     -0.506257
     23 C9         14.3620   -1.0330   -1.8500 c3        1 MOL     -0.133940
     24 H8         12.1750   -1.7810   -0.6630 hn        1 MOL      0.358223
     25 H9         14.2470    0.2360   -0.1870 h1        1 MOL      0.069575
     26 H10        13.7530   -1.7480   -2.4100 hc        1 MOL      0.038600
     27 H11        14.9770   -0.3770   -2.4710 hc        1 MOL      0.038600
     28 H12        15.0330   -1.7090   -1.3090 hc        1 MOL      0.038600
     29 N3         11.3340    0.9160   -0.9350 n         1 MOL     -0.213899
     30 C10        10.4220    2.0070   -1.3120 c3        1 MOL     -0.314745
     31 C11         9.2330    2.1960   -0.3230 c         1 MOL      0.750270
     32 O6          8.9620    1.1670    0.2890 o         1 MOL     -0.580694
     33 C12         9.7400    1.6880   -2.7180 c3        1 MOL     -0.063467
     34 C13         9.2800    0.2600   -2.8540 c         1 MOL      0.597093
     35 O7          8.1660    0.0610   -2.3390 o         1 MOL     -0.631730
     36 O8          9.9560   -0.6430   -3.3800 o         1 MOL     -0.631730
     37 H13        10.9690    0.2990   -0.2230 hn        1 MOL      0.256317
     38 H14        11.0450    2.8980   -1.3800 h1        1 MOL      0.121038
     39 H15        10.3850    1.8680   -3.5830 hc        1 MOL      0.023187
     40 H16         8.9260    2.3950   -2.8580 hc        1 MOL      0.023187
     41 N4          8.5430    3.3200   -0.3350 n         1 MOL     -0.636578
     42 C14         7.3850    3.4300    0.5820 c3        1 MOL     -0.091338
     43 C15         6.2660    2.3380    0.4700 c         1 MOL      0.671073
     44 O9          6.3120    1.4510   -0.3720 o         1 MOL     -0.558762
     45 H17         8.5850    3.9290   -1.1330 hn        1 MOL      0.395995
     46 H18         6.9120    4.3930    0.4030 h1        1 MOL      0.120102
     47 H19         7.7700    3.4170    1.5950 h1        1 MOL      0.120102
     48 N5          5.2960    2.4680    1.4000 n         1 MOL     -0.695439
     49 C16         4.0430    1.6770    1.4430 c3        1 MOL      0.356259
     50 C17         2.7600    2.5500    1.1660 c         1 MOL      0.588612
     51 O10         2.8670    3.6990    0.6570 o         1 MOL     -0.523478
     52 C18         3.9850    0.9100    2.7790 c3        1 MOL     -0.548031
     53 C19         5.0290   -0.2110    2.8090 c         1 MOL      0.843898
     54 N6          5.0620   -1.0320    3.8260 n         1 MOL     -0.834707
     55 O11         5.8610   -0.3670    1.9490 o         1 MOL     -0.578559
     56 H20         5.3980    3.1700    2.1180 hn        1 MOL      0.324446
     57 H21         4.0220    1.0250    0.5660 h1        1 MOL      0.041914
     58 H22         3.0740    0.3320    2.8840 hc        1 MOL      0.140321
     59 H23         4.1420    1.5370    3.6570 hc        1 MOL      0.140321
     60 H24         4.3320   -1.0400    4.5240 hn        1 MOL      0.380168
     61 H25         5.7070   -1.8020    3.8250 hn        1 MOL      0.380168
     62 N7          1.4980    2.0710    1.4720 n         1 MOL     -0.695412
     63 C20         0.2210    2.6640    0.9140 c3        1 MOL      0.120351
     64 C21         0.2110    2.8670   -0.5990 c         1 MOL      0.469393
     65 O12         0.8570    2.0980   -1.2870 o         1 MOL     -0.515109
     66 H26         1.3240    1.1980    1.9580 hn        1 MOL      0.380107
     67 H27        -0.0370    3.5520    1.4930 h1        1 MOL      0.092077
     68 H28        -0.5710    1.9670    1.1710 h1        1 MOL      0.092077
     69 N8         -0.5140    3.8350   -1.1860 n         1 MOL     -0.361593
     70 C22        -1.4730    4.8840   -0.5200 c3        1 MOL     -0.299307
     71 C23        -2.9460    4.5820   -0.3650 c         1 MOL      0.536518
     72 O13        -3.7730    5.2850    0.2760 o         1 MOL     -0.525391
     73 C24        -1.4770    6.2380   -1.2820 c3        1 MOL      0.549129
     74 C25        -0.5000    7.1700   -0.6260 c3        1 MOL     -0.457496
     75 O14        -1.2140    6.1250   -2.6440 oh        1 MOL     -0.649312
     76 H29        -0.3150    4.0070   -2.1710 hn        1 MOL      0.270061
     77 H30        -1.2510    5.1150    0.5180 h1        1 MOL      0.156249
     78 H31        -2.4440    6.7360   -1.2260 h1        1 MOL      0.043540
     79 H32        -0.2850    5.8900   -2.7100 ho        1 MOL      0.387297
     80 H33         0.5450    6.8580   -0.6490 hc        1 MOL      0.099070
     81 H34        -0.6230    8.0580   -1.2420 hc        1 MOL      0.099070
     82 H35        -1.0030    7.3770    0.3110 hc        1 MOL      0.099070
     83 N9         -3.2970    3.3660   -0.9230 n         1 MOL     -0.427401
     84 C26        -4.6170    2.7540   -0.7850 c3        1 MOL      0.036119
     85 C27        -4.6170    2.0590    0.5220 c         1 MOL      0.602418
     86 O15        -3.6000    1.6200    1.0210 o         1 MOL     -0.577708
     87 C28        -4.8920    1.6330   -1.9380 c3        1 MOL      0.178446
     88 C29        -3.9080    0.4470   -2.0420 c3        1 MOL     -0.124911
     89 C30        -5.1140    2.3240   -3.3000 c3        1 MOL     -0.400762
     90 C31        -4.3730   -0.7320   -2.9520 c3        1 MOL     -0.051304
     91 H36        -2.6130    2.8990   -1.5010 hn        1 MOL      0.241577
     92 H37        -5.4700    3.4270   -0.9080 h1        1 MOL      0.075649
     93 H38        -5.8170    1.1150   -1.6530 hc        1 MOL      0.032063
     94 H39        -3.7260    0.2160   -0.9860 hc        1 MOL      0.036133
     95 H40        -2.9060    0.7100   -2.3750 hc        1 MOL      0.036133
     96 H41        -5.8430    3.1040   -3.1160 hc        1 MOL      0.085117
     97 H42        -4.1710    2.7670   -3.6120 hc        1 MOL      0.085117
     98 H43        -5.5590    1.6540   -4.0360 hc        1 MOL      0.085117
     99 H44        -3.6930   -1.5770   -2.9440 hc        1 MOL      0.020682
    100 H45        -5.3920   -1.0500   -2.7310 hc        1 MOL      0.020682
    101 H46        -4.2640   -0.3510   -3.9700 hc        1 MOL      0.020682
    102 N10        -5.8090    1.8110    1.1020 n         1 MOL     -0.412507
    103 C32        -7.1400    2.2440    0.6180 c3        1 MOL     -0.010924
    104 C33        -8.1760    1.0550    0.9340 c         1 MOL      0.374475
    105 O16        -7.8690    0.1490    1.7050 o         1 MOL     -0.419127
    106 C34        -7.6440    3.4850    1.4520 c3        1 MOL     -0.034864
    107 C35        -7.1960    3.5470    2.8950 c         1 MOL      0.721325
    108 O17        -7.7690    2.8590    3.7310 o         1 MOL     -0.715435
    109 O18        -6.3790    4.3840    3.2430 o         1 MOL     -0.715435
    110 H47        -5.7130    1.2750    1.9560 hn        1 MOL      0.338317
    111 H48        -7.3290    2.4620   -0.4360 h1        1 MOL      0.049879
    112 H49        -8.7320    3.5510    1.4210 hc        1 MOL     -0.033832
    113 H50        -7.3130    4.4290    1.0080 hc        1 MOL     -0.033832
    114 N11        -9.3560    1.1930    0.3940 n         1 MOL     -0.530533
    115 C36       -10.4180    0.1430    0.4150 c3        1 MOL      0.546688
    116 C37       -10.7580   -0.3170   -1.0300 c         1 MOL      0.152203
    117 O19       -10.7630    0.5570   -1.8760 o         1 MOL     -0.533208
    118 C38       -11.6580    0.7530    1.1390 c3        1 MOL     -0.106523
    119 C39       -12.7060   -0.3100    1.3200 ca        1 MOL      0.022727
    120 C40       -13.8400   -0.3920    0.5140 ca        1 MOL     -0.130322
    121 C41       -12.6420   -1.0790    2.5180 ca        1 MOL     -0.130322
    122 C42       -14.8100   -1.3690    0.6830 ca        1 MOL     -0.081589
    123 C43       -13.6510   -1.9770    2.8220 ca        1 MOL     -0.081589
    124 C44       -14.7400   -2.1400    1.9090 ca        1 MOL     -0.234644
    125 H51        -9.4700    2.0420   -0.1340 hn        1 MOL      0.287987
    126 H52        -9.8940   -0.6550    0.9400 h1        1 MOL     -0.060956
    127 H53       -12.1180    1.5710    0.5910 hc        1 MOL      0.051493
    128 H54       -11.3510    1.1190    2.1150 hc        1 MOL      0.051493
    129 H55       -14.0390    0.2400   -0.3340 ha        1 MOL      0.122142
    130 H56       -11.8490   -0.8510    3.2200 ha        1 MOL      0.122142
    131 H57       -15.6380   -1.4090   -0.0130 ha        1 MOL      0.106781
    132 H58       -13.6360   -2.3950    3.8220 ha        1 MOL      0.106781
    133 H59       -15.4590   -2.8610    2.2830 ha        1 MOL      0.128290
    134 N12       -11.1550   -1.5220   -1.4240 n         1 MOL      0.064083
    135 C45       -11.1390   -2.6930   -0.5940 c3        1 MOL      0.039913
    136 C46        -9.7610   -3.3190   -0.3250 c         1 MOL      0.470165
    137 O20        -9.6440   -4.0010    0.6810 o         1 MOL     -0.558576
    138 C47       -12.1180   -3.5870   -1.3100 c3        1 MOL     -0.161101
    139 C48       -11.9680   -3.3320   -2.7930 c3        1 MOL     -0.104366
    140 C49       -11.7520   -1.8310   -2.7040 c3        1 MOL     -0.080048
    141 H60       -11.5320   -2.2880    0.3390 h1        1 MOL      0.044228
    142 H61       -12.0680   -4.6230   -0.9620 hc        1 MOL      0.059559
    143 H62       -13.0390   -3.2250   -0.8500 hc        1 MOL      0.059559
    144 H63       -11.0520   -3.7070   -3.2420 hc        1 MOL      0.060783
    145 H64       -12.8410   -3.6150   -3.3890 hc        1 MOL      0.060783
    146 H65       -11.1410   -1.4180   -3.5000 h1        1 MOL      0.047616
    147 H66       -12.7730   -1.4510   -2.6730 h1        1 MOL      0.047616
    148 N13        -8.7520   -3.1570   -1.1560 n         1 MOL     -0.470466
    149 C50        -7.4030   -3.5930   -0.8000 c3        1 MOL      0.355806
    150 C51        -6.7690   -3.9930   -2.1210 c         1 MOL      0.310689
    151 O21        -6.8510   -3.1820   -3.0770 o         1 MOL     -0.556116
    152 C52        -6.8420   -2.2880   -0.2310 c3        1 MOL     -0.167605
    153 C53        -5.2980   -2.3490   -0.0400 c3        1 MOL     -0.292230
    154 C54        -4.9790   -2.7990    1.3740 c         1 MOL      0.671468
    155 O22        -5.2790   -3.9520    1.7090 o         1 MOL     -0.706048
    156 O23        -4.3460   -1.9550    2.1410 o         1 MOL     -0.706048
    157 H67        -8.7630   -2.3710   -1.7910 hn        1 MOL      0.287122
    158 H68        -7.4290   -4.4540   -0.1400 h1        1 MOL      0.070657
    159 H69        -7.3250   -2.1620    0.7380 hc        1 MOL      0.109259
    160 H70        -7.0570   -1.4320   -0.8800 hc        1 MOL      0.109259
    161 H71        -4.8030   -1.3930   -0.1710 hc        1 MOL      0.069946
    162 H72        -4.8910   -2.9620   -0.8430 hc        1 MOL      0.069946
    163 N14        -5.9790   -5.1120   -2.2930 n         1 MOL     -0.349536
    164 C55        -5.6250   -6.0830   -1.2800 c3        1 MOL     -0.107670
    165 H73        -4.9250   -6.8050   -1.6990 h1        1 MOL      0.062382
    166 H74        -5.1610   -5.5750   -0.4350 h1        1 MOL      0.062382
    167 H75        -6.5230   -6.6010   -0.9430 h1        1 MOL      0.062382
    168 H76        -5.4800   -5.2550   -3.1540 hn        1 MOL      0.285459
    169 Ca1         7.3780   -0.9210   -0.1110 Ca        1 MOL      1.637511
    170 O24         7.8950   -2.9660   -1.7750 oh        1 MOL     -0.831167
    171 H77         7.6900   -3.7570   -1.2690 ho        1 MOL      0.411601
    172 H78         8.2820   -3.3030   -2.5810 ho        1 MOL      0.411601
    173 O25         4.9840   -1.3440   -1.3010 oh        1 MOL     -0.831167
    174 H79         4.1560   -1.6350   -0.9340 ho        1 MOL      0.411601
    175 H80         4.7490   -0.7390   -1.9990 ho        1 MOL      0.411601
    176 O26         6.2420   -3.1900    0.8590 oh        1 MOL     -0.831167
    177 H81         5.4660   -3.6160    0.4810 ho        1 MOL      0.411601
    178 H82         6.5980   -3.8350    1.4680 ho        1 MOL      0.411601
@<TRIPOS>BOND
     1    1    2 1   
     2    1    4 1   
     3    1    5 1   
     4    1    6 1   
     5    2    3 2   
     6    2    7 1   
     7    7    8 1   
     8    7   15 1   
     9    8    9 1   
    10    8   11 1   
    11    8   16 1   
    12    9   10 2   
    13    9   19 1   
    14   11   12 1   
    15   11   17 1   
    16   11   18 1   
    17   12   13 1   
    18   12   14 1   
    19   19   20 1   
    20   19   24 1   
    21   20   21 1   
    22   20   23 1   
    23   20   25 1   
    24   21   22 2   
    25   21   29 1   
    26   23   26 1   
    27   23   27 1   
    28   23   28 1   
    29   29   30 1   
    30   29   37 1   
    31   30   31 1   
    32   30   33 1   
    33   30   38 1   
    34   31   32 2   
    35   31   41 1   
    36   33   34 1   
    37   33   39 1   
    38   33   40 1   
    39   34   35 1   
    40   34   36 1   
    41   41   42 1   
    42   41   45 1   
    43   42   43 1   
    44   42   46 1   
    45   42   47 1   
    46   43   44 2   
    47   43   48 1   
    48   48   49 1   
    49   48   56 1   
    50   49   50 1   
    51   49   52 1   
    52   49   57 1   
    53   50   51 2   
    54   50   62 1   
    55   52   53 1   
    56   52   58 1   
    57   52   59 1   
    58   53   54 1   
    59   53   55 2   
    60   54   60 1   
    61   54   61 1   
    62   62   63 1   
    63   62   66 1   
    64   63   64 1   
    65   63   67 1   
    66   63   68 1   
    67   64   65 2   
    68   64   69 1   
    69   69   70 1   
    70   69   76 1   
    71   70   71 1   
    72   70   73 1   
    73   70   77 1   
    74   71   72 2   
    75   71   83 1   
    76   73   74 1   
    77   73   75 1   
    78   73   78 1   
    79   74   80 1   
    80   74   81 1   
    81   74   82 1   
    82   75   79 1   
    83   83   84 1   
    84   83   91 1   
    85   84   85 1   
    86   84   87 1   
    87   84   92 1   
    88   85   86 2   
    89   85  102 1   
    90   87   88 1   
    91   87   89 1   
    92   87   93 1   
    93   88   90 1   
    94   88   94 1   
    95   88   95 1   
    96   89   96 1   
    97   89   97 1   
    98   89   98 1   
    99   90   99 1   
   100   90  100 1   
   101   90  101 1   
   102  102  103 1   
   103  102  110 1   
   104  103  104 1   
   105  103  106 1   
   106  103  111 1   
   107  104  105 2   
   108  104  114 1   
   109  106  107 1   
   110  106  112 1   
   111  106  113 1   
   112  107  108 1   
   113  107  109 1   
   114  114  115 1   
   115  114  125 1   
   116  115  116 1   
   117  115  118 1   
   118  115  126 1   
   119  116  117 2   
   120  116  134 1   
   121  118  119 1   
   122  118  127 1   
   123  118  128 1   
   124  119  120 ar  
   125  119  121 ar  
   126  120  122 ar  
   127  120  129 1   
   128  121  123 ar  
   129  121  130 1   
   130  122  124 ar  
   131  122  131 1   
   132  123  124 ar  
   133  123  132 1   
   134  124  133 1   
   135  134  135 1   
   136  134  140 1   
   137  135  136 1   
   138  135  138 1   
   139  135  141 1   
   140  136  137 2   
   141  136  148 1   
   142  138  139 1   
   143  138  142 1   
   144  138  143 1   
   145  139  140 1   
   146  139  144 1   
   147  139  145 1   
   148  140  146 1   
   149  140  147 1   
   150  148  149 1   
   151  148  157 1   
   152  149  150 1   
   153  149  152 1   
   154  149  158 1   
   155  150  151 2   
   156  150  163 1   
   157  152  153 1   
   158  152  159 1   
   159  152  160 1   
   160  153  154 1   
   161  153  161 1   
   162  153  162 1   
   163  154  155 1   
   164  154  156 1   
   165  163  164 1   
   166  163  168 1   
   167  164  165 1   
   168  164  166 1   
   169  164  167 1   
   170  170  171 1   
   171  170  172 1   
   172  173  174 1   
   173  173  175 1   
   174  176  177 1   
   175  176  178 1   
@<TRIPOS>SUBSTRUCTURE
     1 MOL         1 TEMP              0 ****  ****    0 ROOT
