@<TRIPOS>MOLECULE
MOL
  189   185     1     0     0
SMALL
resp


@<TRIPOS>ATOM
      1 C1         -6.1610   -4.3600   -3.3920 c3        1 MOL     -0.334300
      2 C2         -6.3510   -3.3300   -2.2730 c         1 MOL      0.930506
      3 O1         -5.5080   -3.2300   -1.3710 o         1 MOL     -0.739922
      4 H1         -5.7060   -3.8760   -4.2570 hc        1 MOL      0.071440
      5 H2         -5.5120   -5.1620   -3.0420 hc        1 MOL      0.071440
      6 H3         -7.1290   -4.7730   -3.6750 hc        1 MOL      0.071440
      7 N1         -7.4740   -2.5630   -2.3600 n         1 MOL     -0.801711
      8 C3         -7.7570   -1.3100   -1.6300 c3        1 MOL      0.542534
      9 C4         -6.4970   -0.4340   -1.4820 c         1 MOL      0.127467
     10 O2         -5.7230   -0.5430   -0.5300 o         1 MOL     -0.474409
     11 C5         -8.5540   -1.4790   -0.3490 c3        1 MOL     -0.347801
     12 C6         -8.1230   -2.6740    0.4890 c         1 MOL      0.802895
     13 O3         -7.0010   -2.6850    1.1000 o         1 MOL     -0.737434
     14 O4         -8.8260   -3.6820    0.6830 o         1 MOL     -0.737434
     15 H4         -8.0880   -2.7520   -3.1290 hn        1 MOL      0.339980
     16 H5         -8.3620   -0.7700   -2.3530 h1        1 MOL     -0.017307
     17 H6         -9.5970   -1.6220   -0.6400 hc        1 MOL      0.078793
     18 H7         -8.3750   -0.6610    0.3510 hc        1 MOL      0.078793
     19 N2         -6.1940    0.2290   -2.6150 n         1 MOL     -0.522361
     20 C7         -5.1920    1.2630   -2.8150 c3        1 MOL      0.258808
     21 C8         -5.5480    2.5950   -2.1170 c         1 MOL      0.324756
     22 O5         -5.5920    3.5860   -2.8500 o         1 MOL     -0.558996
     23 C9         -3.7650    0.7950   -2.4920 c3        1 MOL      0.315028
     24 C10        -2.6820    1.7430   -3.0600 c3        1 MOL     -0.238503
     25 C11        -3.4520   -0.6050   -2.9890 c3        1 MOL     -0.192278
     26 C12        -2.8840    2.0030   -4.5750 c3        1 MOL      0.062114
     27 H8         -6.5980   -0.0960   -3.4770 hn        1 MOL      0.300288
     28 H9         -5.2590    1.4760   -3.8810 h1        1 MOL     -0.002586
     29 H10        -3.5580    0.7430   -1.4200 hc        1 MOL     -0.144212
     30 H11        -1.7200    1.2750   -2.8360 hc        1 MOL      0.065369
     31 H12        -2.8060    2.6730   -2.5010 hc        1 MOL      0.065369
     32 H13        -4.0160   -1.3940   -2.4840 hc        1 MOL      0.040885
     33 H14        -3.6890   -0.7360   -4.0480 hc        1 MOL      0.040885
     34 H15        -2.4050   -0.8310   -2.8230 hc        1 MOL      0.040885
     35 H16        -1.9180    1.9120   -5.0640 hc        1 MOL     -0.027558
     36 H17        -3.3930    1.1570   -5.0330 hc        1 MOL     -0.027558
     37 H18        -3.4220    2.8990   -4.8990 hc        1 MOL     -0.027558
     38 N3         -5.9320    2.6040   -0.8960 n         1 MOL     -0.122570
     39 C13        -6.3720    3.8330   -0.0320 c3        1 MOL      0.140141
     40 C14        -5.3470    4.8690    0.3050 c         1 MOL      0.568211
     41 O6         -5.5800    6.0330    0.0590 o         1 MOL     -0.595314
     42 C15        -7.2620    3.3280    1.1540 c3        1 MOL     -0.296696
     43 C16        -8.5970    2.7770    0.6860 c         1 MOL      0.675390
     44 O7         -9.0900    3.2210   -0.3810 o         1 MOL     -0.713518
     45 O8         -9.1750    1.8090    1.2760 o         1 MOL     -0.713518
     46 H19        -5.8540    1.7050   -0.4330 hn        1 MOL      0.298150
     47 H20        -7.0150    4.3840   -0.7180 h1        1 MOL      0.037457
     48 H21        -7.4200    4.2240    1.7510 hc        1 MOL      0.080582
     49 H22        -6.7360    2.5790    1.7300 hc        1 MOL      0.080582
     50 N4         -4.1050    4.6290    0.6880 n         1 MOL     -0.530286
     51 C17        -3.5940    3.4000    1.2180 c3        1 MOL      0.070814
     52 C18        -3.8630    3.2580    2.6870 c         1 MOL      0.519432
     53 O9         -4.5610    4.1220    3.2820 o         1 MOL     -0.564643
     54 H23        -3.4920    5.4240    0.7600 hn        1 MOL      0.305100
     55 H24        -2.5030    3.4000    1.1850 h1        1 MOL      0.052379
     56 H25        -4.0560    2.6250    0.6100 h1        1 MOL      0.052379
     57 N5         -3.2720    2.2410    3.3730 n         1 MOL     -0.472189
     58 C19        -2.0890    1.4470    2.9120 c3        1 MOL      0.133800
     59 C20        -2.1170    0.8670    1.4570 c         1 MOL      0.269956
     60 O10        -3.1760    0.3890    1.0320 o         1 MOL     -0.550620
     61 C21        -1.7530    0.4060    3.9150 c3        1 MOL     -0.422567
     62 C22        -2.8180   -0.6310    4.1540 c         1 MOL      0.854055
     63 O11        -3.4900   -0.5930    5.2440 o         1 MOL     -0.708037
     64 O12        -2.9410   -1.5020    3.2630 o         1 MOL     -0.708037
     65 H26        -3.6490    2.1030    4.3010 hn        1 MOL      0.292045
     66 H27        -1.3110    2.2100    2.9370 h1        1 MOL      0.041234
     67 H28        -1.3840    0.8790    4.8210 hc        1 MOL      0.118428
     68 H29        -0.8410   -0.1110    3.6230 hc        1 MOL      0.118428
     69 N6         -0.9670    0.8930    0.7190 n         1 MOL     -0.132819
     70 C23         0.3160    1.4220    1.1290 c3        1 MOL     -0.089239
     71 C24         0.5030    2.8200    0.4380 c         1 MOL      0.554672
     72 O13        -0.4030    3.3890   -0.1170 o         1 MOL     -0.523352
     73 H30        -1.1090    0.6190   -0.2390 hn        1 MOL      0.257143
     74 H31         1.0750    0.8590    0.5750 h1        1 MOL      0.073211
     75 H32         0.4690    1.5990    2.1940 h1        1 MOL      0.073211
     76 N7          1.7120    3.3440    0.5580 n         1 MOL     -0.421582
     77 C25         2.2580    4.5440   -0.0390 c3        1 MOL     -0.104808
     78 C26         2.6990    4.2180   -1.4890 c         1 MOL      0.450145
     79 O14         2.6050    5.0680   -2.3630 o         1 MOL     -0.527736
     80 C27         3.3790    5.0570    0.8220 c3        1 MOL      0.333240
     81 C28         3.5260    6.6260    0.8920 c3        1 MOL     -0.413081
     82 C29         4.7340    7.0620    1.7140 c         1 MOL      0.766440
     83 N8          4.5310    8.0250    2.5710 n         1 MOL     -0.835774
     84 O15         5.8320    6.5560    1.7970 o         1 MOL     -0.572508
     85 H33         2.3440    2.7370    1.0620 hn        1 MOL      0.241289
     86 H34         1.4450    5.2810   -0.0050 h1        1 MOL      0.141395
     87 H35         4.3580    4.6510    0.5670 hc        1 MOL     -0.046646
     88 H36         3.2180    4.7290    1.8470 hc        1 MOL     -0.046646
     89 H37         2.5660    7.0010    1.2590 hc        1 MOL      0.098632
     90 H38         3.7610    7.0350   -0.0880 hc        1 MOL      0.098632
     91 H39         3.6200    8.4580    2.6360 hn        1 MOL      0.363500
     92 H40         5.1640    8.0840    3.3520 hn        1 MOL      0.363500
     93 N9          3.2100    3.0460   -1.8190 n         1 MOL     -0.271234
     94 C30         3.5410    2.6180   -3.2160 c3        1 MOL     -0.189837
     95 C31         4.9090    1.9610   -3.2810 c         1 MOL      0.561992
     96 O16         5.4120    1.8500   -4.3900 o         1 MOL     -0.557878
     97 C32         2.4470    1.7270   -3.8390 c3        1 MOL      0.132135
     98 C33         1.2430    2.5940   -4.1290 c3        1 MOL     -0.255224
     99 C34         1.9230    0.5700   -2.9110 c3        1 MOL     -0.255224
    100 H41         3.4670    2.4330   -1.0590 hn        1 MOL      0.312497
    101 H42         3.7290    3.4390   -3.9080 h1        1 MOL      0.154876
    102 H43         2.7700    1.2430   -4.7580 hc        1 MOL      0.041710
    103 H44         1.1000    3.2570   -3.2670 hc        1 MOL      0.072588
    104 H45         1.2690    3.2860   -4.9700 hc        1 MOL      0.072588
    105 H46         0.3670    1.9590   -4.2600 hc        1 MOL      0.072588
    106 H47         2.6610   -0.2210   -2.7490 hc        1 MOL      0.072588
    107 H48         1.7360    0.8450   -1.8720 hc        1 MOL      0.072588
    108 H49         1.0980    0.0420   -3.3870 hc        1 MOL      0.072588
    109 N10         5.5100    1.5170   -2.1910 n         1 MOL     -0.402539
    110 C35         6.7830    0.7880   -2.1280 c3        1 MOL      0.357302
    111 C36         6.8000   -0.6050   -1.5650 c         1 MOL      0.378443
    112 O17         7.2880   -1.5350   -2.1930 o         1 MOL     -0.541645
    113 C37         7.7920    1.6820   -1.5200 c3        1 MOL     -0.417670
    114 C38         7.5990    2.1170   -0.0990 c         1 MOL      0.770450
    115 N11         8.4720    3.0120    0.3300 n         1 MOL     -0.832667
    116 O18         6.6340    1.9200    0.6580 o         1 MOL     -0.551567
    117 H50         5.0950    1.7000   -1.2820 hn        1 MOL      0.127592
    118 H51         7.0370    0.6930   -3.1880 h1        1 MOL      0.036174
    119 H52         7.9620    2.5970   -2.0910 hc        1 MOL      0.105571
    120 H53         8.7760    1.2150   -1.5230 hc        1 MOL      0.105571
    121 H54         9.3730    3.0590   -0.1240 hn        1 MOL      0.376586
    122 H55         8.3050    3.4610    1.2120 hn        1 MOL      0.376586
    123 N12         6.0590   -0.8810   -0.4520 n         1 MOL     -0.398653
    124 C39         6.0330   -2.2180    0.2300 c3        1 MOL      0.541308
    125 C40         4.5650   -2.7220    0.5080 c         1 MOL      0.098241
    126 O19         3.6020   -1.9280    0.6470 o         1 MOL     -0.384682
    127 C41         6.9970   -2.0670    1.4440 c3        1 MOL     -0.476319
    128 C42         8.2950   -1.4910    1.2870 ca        1 MOL      0.078333
    129 C43         8.6280   -0.3460    1.9530 ca        1 MOL     -0.056811
    130 C44         9.1960   -2.0820    0.3940 ca        1 MOL     -0.056811
    131 C45         9.8770    0.2540    1.6840 ca        1 MOL     -0.391116
    132 C46        10.5310   -1.6460    0.3440 ca        1 MOL     -0.391116
    133 C47        10.8470   -0.3910    0.9210 ca        1 MOL      0.442372
    134 O20        12.0890    0.0690    0.6860 oh        1 MOL     -0.556158
    135 H56         5.4470   -0.1520   -0.1080 hn        1 MOL      0.217977
    136 H57         6.4140   -2.9760   -0.4540 h1        1 MOL     -0.042256
    137 H58         7.2450   -3.0940    1.7190 hc        1 MOL      0.160840
    138 H59         6.5020   -1.4760    2.2180 hc        1 MOL      0.160840
    139 H60         7.9550    0.0090    2.7060 ha        1 MOL      0.125595
    140 H61         8.9730   -2.9300   -0.2290 ha        1 MOL      0.125595
    141 H62        10.0230    1.2750    2.0030 ha        1 MOL      0.152242
    142 H63        11.3380   -2.1620   -0.1480 ha        1 MOL      0.152242
    143 H64        12.6070   -0.6020    0.2330 ho        1 MOL      0.383951
    144 N13         4.5500   -4.0140    0.8900 n         1 MOL     -0.316117
    145 C48         3.3080   -4.7620    1.1750 c3        1 MOL     -0.195522
    146 C49         2.3160   -5.0180   -0.0030 c         1 MOL      0.430323
    147 O21         1.8710   -6.1540   -0.1600 o         1 MOL     -0.525580
    148 C50         2.6250   -4.1590    2.4240 c3        1 MOL      0.286909
    149 C51         3.6350   -3.9690    3.6300 c3        1 MOL     -0.217999
    150 C52         2.9820   -3.5280    4.9190 c         1 MOL      0.711292
    151 O22         2.5990   -2.3550    5.0470 o         1 MOL     -0.735212
    152 O23         2.7780   -4.4240    5.8150 o         1 MOL     -0.735212
    153 H65         5.4130   -4.5100    1.0140 hn        1 MOL      0.300743
    154 H66         3.6640   -5.7740    1.3470 h1        1 MOL      0.093729
    155 H67         1.8420   -4.7880    2.8610 hc        1 MOL      0.007437
    156 H68         2.0820   -3.2650    2.1510 hc        1 MOL      0.007437
    157 H69         4.3540   -3.2000    3.3620 hc        1 MOL     -0.027829
    158 H70         4.1910   -4.8910    3.7660 hc        1 MOL     -0.027829
    159 N14         2.0000   -4.0370   -0.8260 n         1 MOL     -0.175692
    160 C53         0.9140   -4.2160   -1.8200 c3        1 MOL     -0.279031
    161 C54         1.4090   -4.9240   -3.1120 c         1 MOL      0.593820
    162 O24         0.5860   -5.4830   -3.8380 o         1 MOL     -0.572555
    163 C55         0.2830   -2.8560   -1.9960 c3        1 MOL      0.098281
    164 C56        -0.0290   -1.9440   -0.8110 c3        1 MOL      0.344311
    165 C57        -0.9830   -2.7700    0.0920 c         1 MOL      0.481280
    166 O25        -2.1120   -2.2990    0.1710 o         1 MOL     -0.584099
    167 O26        -0.6750   -3.7890    0.7480 o         1 MOL     -0.584099
    168 H71         2.3260   -3.1010   -0.6030 hn        1 MOL      0.188539
    169 H72         0.0860   -4.8250   -1.4730 h1        1 MOL      0.185548
    170 H73        -0.6300   -3.0550   -2.5670 hc        1 MOL     -0.027907
    171 H74         0.8300   -2.3490   -2.7920 hc        1 MOL     -0.027907
    172 H75        -0.5290   -1.1000   -1.2750 hc        1 MOL     -0.163416
    173 H76         0.9310   -1.6340   -0.3790 hc        1 MOL     -0.163416
    174 N15         2.6760   -5.0870   -3.2620 n         1 MOL     -0.339185
    175 C58         3.2160   -6.1610   -4.1820 c3        1 MOL     -0.166437
    176 H77         3.4440   -5.7240   -5.1540 h1        1 MOL      0.087791
    177 H78         4.1240   -6.5840   -3.7530 h1        1 MOL      0.087791
    178 H79         2.4700   -6.9450   -4.3040 h1        1 MOL      0.087791
    179 H80         3.3440   -4.7700   -2.5850 hn        1 MOL      0.244996
    180 Ca1        -4.4760   -2.0150    1.1690 Ca        1 MOL      1.795815
    181 O27        -3.3120   -4.5870    1.5310 oh        1 MOL     -0.795509
    182 H81        -3.7280   -5.3550    1.9120 ho        1 MOL      0.370910
    183 H82        -2.4120   -4.8640    1.3540 ho        1 MOL      0.370910
    184 O28        -5.5500   -0.3100    2.8310 oh        1 MOL     -0.795509
    185 H83        -6.4580   -0.0460    2.9800 ho        1 MOL      0.370910
    186 H84        -5.1070   -0.0790    3.6560 ho        1 MOL      0.370910
    187 O29        -5.2930   -3.8210    3.3920 oh        1 MOL     -0.795509
    188 H85        -5.9600   -4.2360    2.8420 ho        1 MOL      0.370910
    189 H86        -4.7560   -4.5360    3.7130 ho        1 MOL      0.370910
@<TRIPOS>BOND
     1    1    2 1   
     2    1    4 1   
     3    1    5 1   
     4    1    6 1   
     5    2    3 2   
     6    2    7 1   
     7    7    8 1   
     8    7   15 1   
     9    8    9 1   
    10    8   11 1   
    11    8   16 1   
    12    9   10 2   
    13    9   19 1   
    14   11   12 1   
    15   11   17 1   
    16   11   18 1   
    17   12   13 1   
    18   12   14 1   
    19   19   20 1   
    20   19   27 1   
    21   20   21 1   
    22   20   23 1   
    23   20   28 1   
    24   21   22 2   
    25   21   38 1   
    26   23   24 1   
    27   23   25 1   
    28   23   29 1   
    29   24   26 1   
    30   24   30 1   
    31   24   31 1   
    32   25   32 1   
    33   25   33 1   
    34   25   34 1   
    35   26   35 1   
    36   26   36 1   
    37   26   37 1   
    38   38   39 1   
    39   38   46 1   
    40   39   40 1   
    41   39   42 1   
    42   39   47 1   
    43   40   41 2   
    44   40   50 1   
    45   42   43 1   
    46   42   48 1   
    47   42   49 1   
    48   43   44 1   
    49   43   45 1   
    50   50   51 1   
    51   50   54 1   
    52   51   52 1   
    53   51   55 1   
    54   51   56 1   
    55   52   53 2   
    56   52   57 1   
    57   57   58 1   
    58   57   65 1   
    59   58   59 1   
    60   58   61 1   
    61   58   66 1   
    62   59   60 2   
    63   59   69 1   
    64   61   62 1   
    65   61   67 1   
    66   61   68 1   
    67   62   63 1   
    68   62   64 1   
    69   69   70 1   
    70   69   73 1   
    71   70   71 1   
    72   70   74 1   
    73   70   75 1   
    74   71   72 2   
    75   71   76 1   
    76   76   77 1   
    77   76   85 1   
    78   77   78 1   
    79   77   80 1   
    80   77   86 1   
    81   78   79 2   
    82   78   93 1   
    83   80   81 1   
    84   80   87 1   
    85   80   88 1   
    86   81   82 1   
    87   81   89 1   
    88   81   90 1   
    89   82   83 1   
    90   82   84 2   
    91   83   91 1   
    92   83   92 1   
    93   93   94 1   
    94   93  100 1   
    95   94   95 1   
    96   94   97 1   
    97   94  101 1   
    98   95   96 2   
    99   95  109 1   
   100   97   98 1   
   101   97   99 1   
   102   97  102 1   
   103   98  103 1   
   104   98  104 1   
   105   98  105 1   
   106   99  106 1   
   107   99  107 1   
   108   99  108 1   
   109  109  110 1   
   110  109  117 1   
   111  110  111 1   
   112  110  113 1   
   113  110  118 1   
   114  111  112 2   
   115  111  123 1   
   116  113  114 1   
   117  113  119 1   
   118  113  120 1   
   119  114  115 1   
   120  114  116 2   
   121  115  121 1   
   122  115  122 1   
   123  123  124 1   
   124  123  135 1   
   125  124  125 1   
   126  124  127 1   
   127  124  136 1   
   128  125  126 2   
   129  125  144 1   
   130  127  128 1   
   131  127  137 1   
   132  127  138 1   
   133  128  129 ar  
   134  128  130 ar  
   135  129  131 ar  
   136  129  139 1   
   137  130  132 ar  
   138  130  140 1   
   139  131  133 ar  
   140  131  141 1   
   141  132  133 ar  
   142  132  142 1   
   143  133  134 1   
   144  134  143 1   
   145  144  145 1   
   146  144  153 1   
   147  145  146 1   
   148  145  148 1   
   149  145  154 1   
   150  146  147 2   
   151  146  159 1   
   152  148  149 1   
   153  148  155 1   
   154  148  156 1   
   155  149  150 1   
   156  149  157 1   
   157  149  158 1   
   158  150  151 1   
   159  150  152 1   
   160  159  160 1   
   161  159  168 1   
   162  160  161 1   
   163  160  163 1   
   164  160  169 1   
   165  161  162 2   
   166  161  174 1   
   167  163  164 1   
   168  163  170 1   
   169  163  171 1   
   170  164  165 1   
   171  164  172 1   
   172  164  173 1   
   173  165  166 1   
   174  165  167 1   
   175  174  175 1   
   176  174  179 1   
   177  175  176 1   
   178  175  177 1   
   179  175  178 1   
   180  181  182 1   
   181  181  183 1   
   182  184  185 1   
   183  184  186 1   
   184  187  188 1   
   185  187  189 1   
@<TRIPOS>SUBSTRUCTURE
     1 MOL         1 TEMP              0 ****  ****    0 ROOT
