@<TRIPOS>MOLECULE
MOL
  181   177     1     0     0
SMALL
resp


@<TRIPOS>ATOM
      1 C1          6.5180   -5.9980    3.8790 c3        1 MOL     -0.358359
      2 C2          5.7230   -5.0030    3.1190 c         1 MOL      0.705764
      3 O1          4.5160   -5.0040    3.1890 o         1 MOL     -0.573636
      4 H1          7.5350   -5.6280    4.0080 hc        1 MOL      0.095409
      5 H2          6.0630   -6.1570    4.8570 hc        1 MOL      0.095409
      6 H3          6.5420   -6.9400    3.3320 hc        1 MOL      0.095409
      7 N1          6.3030   -4.0910    2.3230 n         1 MOL     -0.562969
      8 C3          7.7430   -3.9100    2.1220 c3        1 MOL     -0.023790
      9 C4          8.0020   -3.5870    0.6620 c         1 MOL      0.676396
     10 O2          7.1660   -2.9780   -0.0150 o         1 MOL     -0.538395
     11 C5          8.2230   -2.7020    2.9850 c3        1 MOL     -0.201269
     12 C6          7.4500   -1.3610    2.8360 c         1 MOL      0.758172
     13 O3          6.4470   -1.2290    2.1040 o         1 MOL     -0.691066
     14 O4          7.8640   -0.4180    3.5300 o         1 MOL     -0.691066
     15 H4          5.7640   -3.4140    1.8130 hn        1 MOL      0.328420
     16 H5          8.2030   -4.8640    2.3900 h1        1 MOL      0.051937
     17 H6          9.2670   -2.4420    2.7970 hc        1 MOL      0.049399
     18 H7          8.1760   -3.0830    4.0140 hc        1 MOL      0.049399
     19 N2          9.1960   -4.0400    0.1690 n         1 MOL     -0.581780
     20 C7          9.7260   -4.0980   -1.2340 c3        1 MOL      0.170855
     21 C8          9.8670   -2.7570   -2.0150 c         1 MOL      0.297985
     22 O5         10.8240   -2.5940   -2.8440 o         1 MOL     -0.524683
     23 C9          8.7900   -4.9570   -2.0950 c3        1 MOL     -0.241700
     24 H8          9.9450   -4.4190    0.7330 hn        1 MOL      0.318896
     25 H9         10.6740   -4.6360   -1.2320 h1        1 MOL      0.064790
     26 H10         8.8920   -5.9810   -1.7370 hc        1 MOL      0.069779
     27 H11         7.7860   -4.5520   -2.0070 hc        1 MOL      0.069779
     28 H12         9.1450   -4.9090   -3.1190 hc        1 MOL      0.069779
     29 N3          9.0950   -1.7550   -1.6420 n         1 MOL     -0.042670
     30 C10         9.3410   -0.3690   -1.8130 c3        1 MOL     -0.169226
     31 C11         8.8970    0.3650   -0.5550 c         1 MOL      0.520505
     32 O6          7.8690    0.0500    0.0090 o         1 MOL     -0.560143
     33 C12         8.7320    0.1230   -3.0530 c3        1 MOL      0.114207
     34 C13         7.2950   -0.2170   -3.4010 c         1 MOL      0.666675
     35 O7          6.3440    0.0980   -2.6320 o         1 MOL     -0.701536
     36 O8          7.0180   -0.9010   -4.4130 o         1 MOL     -0.701536
     37 H13         8.2540   -2.0190   -1.1600 hn        1 MOL      0.095653
     38 H14        10.4220   -0.2190   -1.8390 h1        1 MOL      0.071076
     39 H15         9.3490   -0.1240   -3.9200 hc        1 MOL      0.003651
     40 H16         8.8690    1.2080   -3.0690 hc        1 MOL      0.003651
     41 N4          9.5730    1.4530   -0.1570 n         1 MOL     -0.386451
     42 C14         9.2550    2.2630    1.0390 c3        1 MOL     -0.182835
     43 C15         8.0320    3.1950    0.6930 c         1 MOL      0.556163
     44 O9          7.7470    4.1200    1.4300 o         1 MOL     -0.563239
     45 H17        10.4160    1.7160   -0.6490 hn        1 MOL      0.301359
     46 H18        10.0980    2.9120    1.3020 h1        1 MOL      0.142546
     47 H19         9.0310    1.6810    1.9250 h1        1 MOL      0.142546
     48 N5          7.3960    2.9610   -0.4590 n         1 MOL     -0.296341
     49 C16         6.1690    3.6920   -0.7800 c3        1 MOL     -0.041670
     50 C17         4.9890    2.8890   -0.2080 c         1 MOL      0.739565
     51 O10         5.0370    1.6870   -0.0790 o         1 MOL     -0.611861
     52 C18         6.1410    3.9800   -2.3380 c3        1 MOL     -0.156861
     53 C19         7.4620    4.6440   -2.7300 c         1 MOL      0.638571
     54 N6          7.7060    5.8330   -2.3670 n         1 MOL     -0.719188
     55 O11         8.2930    3.9960   -3.4040 o         1 MOL     -0.578378
     56 H20         7.5820    2.0540   -0.8770 hn        1 MOL      0.102801
     57 H21         6.1790    4.6400   -0.2370 h1        1 MOL      0.057678
     58 H22         5.2960    4.6120   -2.5810 hc        1 MOL      0.070299
     59 H23         6.0250    3.0120   -2.8230 hc        1 MOL      0.070299
     60 H24         7.0940    6.4810   -1.8760 hn        1 MOL      0.345656
     61 H25         8.6460    6.1950   -2.4400 hn        1 MOL      0.345656
     62 N7          3.9400    3.6060    0.1000 n         1 MOL     -0.539864
     63 C20         2.5280    3.1780    0.2960 c3        1 MOL      0.046822
     64 C21         1.4620    4.0180   -0.4840 c         1 MOL      0.641135
     65 O12         1.7680    4.8260   -1.3570 o         1 MOL     -0.574745
     66 H26         4.0920    4.6050    0.0050 hn        1 MOL      0.292893
     67 H27         2.4120    3.2450    1.3700 h1        1 MOL      0.076673
     68 H28         2.3990    2.1410   -0.0290 h1        1 MOL      0.076673
     69 N8          0.1820    4.0020   -0.1170 n         1 MOL     -0.555841
     70 C22        -0.4700    3.5360    1.1300 c3        1 MOL     -0.103492
     71 C23        -1.9380    3.0330    1.0230 c         1 MOL      0.801471
     72 O13        -2.6810    3.3710    0.0680 o         1 MOL     -0.531472
     73 C24        -0.4620    4.6910    2.1460 c3        1 MOL      0.498056
     74 C25         0.7750    5.0370    2.8720 c3        1 MOL     -0.384638
     75 O14        -0.9470    5.8660    1.5300 oh        1 MOL     -0.633981
     76 H29        -0.3280    4.6180   -0.7270 hn        1 MOL      0.333116
     77 H30         0.0810    2.7100    1.5700 h1        1 MOL      0.049938
     78 H31        -1.1640    4.4710    2.9480 h1        1 MOL     -0.011847
     79 H32        -1.8910    5.7780    1.3640 ho        1 MOL      0.399275
     80 H33         1.4400    4.2060    3.1040 hc        1 MOL      0.089726
     81 H34         1.3530    5.7850    2.3310 hc        1 MOL      0.089726
     82 H35         0.5230    5.5860    3.7840 hc        1 MOL      0.089726
     83 N9         -2.3210    2.2430    2.0450 n         1 MOL     -0.821899
     84 C26        -3.6890    1.7410    2.2060 c3        1 MOL     -0.076562
     85 C27        -4.5580    3.0180    2.4380 c         1 MOL      0.522979
     86 O15        -4.3310    3.7510    3.4160 o         1 MOL     -0.591873
     87 C28        -3.7250    0.9200    3.4560 c3        1 MOL      0.315733
     88 C29        -2.5710   -0.2520    3.5270 c3        1 MOL      0.047857
     89 C30        -5.0850    0.1860    3.5760 c3        1 MOL     -0.173001
     90 C31        -2.4560   -1.0870    4.8100 c3        1 MOL     -0.194105
     91 H36        -1.6110    1.8720    2.6530 hn        1 MOL      0.354991
     92 H37        -3.9720    1.1440    1.3350 h1        1 MOL      0.134368
     93 H38        -3.5550    1.5600    4.3260 hc        1 MOL     -0.050249
     94 H39        -1.6150    0.2890    3.4950 hc        1 MOL     -0.014231
     95 H40        -2.7690   -0.9020    2.6740 hc        1 MOL     -0.014231
     96 H41        -5.1240   -0.2550    4.5630 hc        1 MOL      0.028957
     97 H42        -5.8680    0.9440    3.4790 hc        1 MOL      0.028957
     98 H43        -5.1030   -0.6020    2.8180 hc        1 MOL      0.028957
     99 H44        -2.6920   -0.4610    5.6740 hc        1 MOL      0.031210
    100 H45        -3.1700   -1.9120    4.8930 hc        1 MOL      0.031210
    101 H46        -1.4730   -1.5520    4.8280 hc        1 MOL      0.031210
    102 N10        -5.5950    3.2990    1.6620 n         1 MOL     -0.350662
    103 C32        -5.9010    2.6520    0.4160 c3        1 MOL      0.113787
    104 C33        -7.0180    1.5850    0.4920 c         1 MOL      0.552866
    105 O16        -7.4020    1.2100    1.5940 o         1 MOL     -0.564014
    106 C34        -6.1970    3.6900   -0.6540 c3        1 MOL     -0.259723
    107 C35        -7.0160    4.9550   -0.3120 c         1 MOL      0.792333
    108 O17        -7.3300    5.6200   -1.2870 o         1 MOL     -0.734661
    109 O18        -7.2510    5.3200    0.8300 o         1 MOL     -0.734661
    110 H47        -6.1740    4.1210    1.7590 hn        1 MOL      0.277660
    111 H48        -4.9880    2.2170    0.0130 h1        1 MOL      0.079829
    112 H49        -6.6710    3.1800   -1.4930 hc        1 MOL      0.034005
    113 H50        -5.2450    4.1190   -0.9370 hc        1 MOL      0.034005
    114 N11        -7.6460    1.1260   -0.6300 n         1 MOL     -0.635796
    115 C36        -8.8210    0.2430   -0.6880 c3        1 MOL      0.696109
    116 C37        -8.8670   -0.4620   -2.1030 c         1 MOL      0.031013
    117 O19        -8.3250    0.0940   -3.1130 o         1 MOL     -0.475000
    118 C38       -10.0200    1.0130   -0.4600 c3        1 MOL     -0.314123
    119 C39       -11.3190    0.2730   -0.5550 ca        1 MOL      0.144351
    120 C40       -11.9550    0.1090   -1.7970 ca        1 MOL     -0.138424
    121 C41       -11.8920   -0.3400    0.5600 ca        1 MOL     -0.138424
    122 C42       -13.2020   -0.4370   -1.8980 ca        1 MOL     -0.135398
    123 C43       -13.1220   -1.0350    0.4200 ca        1 MOL     -0.135398
    124 C44       -13.9180   -0.8840   -0.7330 ca        1 MOL     -0.145232
    125 H51        -7.2080    1.4540   -1.4840 hn        1 MOL      0.323668
    126 H52        -8.5910   -0.5470    0.0250 h1        1 MOL     -0.112428
    127 H53        -9.9480    1.7560   -1.2570 hc        1 MOL      0.087120
    128 H54        -9.9700    1.5240    0.5000 hc        1 MOL      0.087120
    129 H55       -11.5290    0.5700   -2.6690 ha        1 MOL      0.114358
    130 H56       -11.3470   -0.2050    1.4880 ha        1 MOL      0.114358
    131 H57       -13.8110   -0.4570   -2.7780 ha        1 MOL      0.101829
    132 H58       -13.5210   -1.5510    1.2730 ha        1 MOL      0.101829
    133 H59       -14.9180   -1.2920   -0.7240 ha        1 MOL      0.111841
    134 N12        -9.4490   -1.6420   -2.2100 n         1 MOL      0.234129
    135 C45        -9.6700   -2.6280   -1.1090 c3        1 MOL      0.090843
    136 C46        -8.4040   -3.0450   -0.3840 c         1 MOL      0.603170
    137 O20        -8.5130   -3.4480    0.7610 o         1 MOL     -0.600956
    138 C47       -10.4540   -3.8100   -1.7550 c3        1 MOL     -0.251677
    139 C48       -10.1790   -3.6760   -3.2090 c3        1 MOL      0.077226
    140 C49        -9.9000   -2.2150   -3.5170 c3        1 MOL     -0.352512
    141 H60       -10.2310   -2.1300   -0.3270 h1        1 MOL     -0.029719
    142 H61       -10.1480   -4.7550   -1.2860 hc        1 MOL      0.084402
    143 H62       -11.5240   -3.6820   -1.6920 hc        1 MOL      0.084402
    144 H63        -9.2670   -4.2000   -3.4990 hc        1 MOL      0.014144
    145 H64       -11.0100   -4.1240   -3.7610 hc        1 MOL      0.014144
    146 H65        -9.1480   -2.1100   -4.2970 h1        1 MOL      0.123643
    147 H66       -10.8830   -1.8100   -3.7710 h1        1 MOL      0.123643
    148 N13        -7.2240   -3.0840   -1.0130 n         1 MOL     -0.406665
    149 C50        -6.0130   -3.4670   -0.2700 c3        1 MOL      0.189845
    150 C51        -5.8890   -4.9820   -0.3560 c         1 MOL      0.373362
    151 O21        -5.7160   -5.5050   -1.4860 o         1 MOL     -0.572344
    152 C52        -4.7770   -2.7370   -0.8260 c3        1 MOL      0.040430
    153 C53        -4.6640   -1.3100   -0.2260 c3        1 MOL     -0.444292
    154 C54        -3.3930   -0.5930   -0.7650 c         1 MOL      0.782302
    155 O22        -2.3100   -0.5330   -0.0760 o         1 MOL     -0.710571
    156 O23        -3.2480   -0.1490   -1.9000 o         1 MOL     -0.710571
    157 H67        -7.1320   -2.9090   -2.0000 hn        1 MOL      0.276652
    158 H68        -6.0830   -3.2770    0.8050 h1        1 MOL      0.103155
    159 H69        -4.9450   -2.5440   -1.8930 hc        1 MOL      0.026648
    160 H70        -3.9110   -3.3800   -0.7710 hc        1 MOL      0.026648
    161 H71        -4.5290   -1.3830    0.8510 hc        1 MOL      0.065481
    162 H72        -5.5690   -0.7100   -0.3320 hc        1 MOL      0.065481
    163 N14        -6.0980   -5.8610    0.6620 n         1 MOL     -0.370260
    164 C55        -6.5000   -5.5400    2.0810 c3        1 MOL     -0.117093
    165 H73        -7.5800   -5.6450    2.1840 h1        1 MOL      0.075696
    166 H74        -6.0020   -6.2280    2.7650 h1        1 MOL      0.075696
    167 H75        -6.2110   -4.5170    2.3190 h1        1 MOL      0.075696
    168 H76        -6.2310   -6.8440    0.4620 hn        1 MOL      0.286872
    169 Ca1         5.5570   -0.9440   -0.2510 Ca        1 MOL      1.747151
    170 O24         3.7600   -0.7540    1.5730 oh        1 MOL     -0.851767
    171 H77         4.0130   -0.5940    2.4860 ho        1 MOL      0.420452
    172 H78         2.8630   -1.0900    1.6390 ho        1 MOL      0.420452
    173 O25         5.5610   -2.5920   -2.5670 oh        1 MOL     -0.851767
    174 H79         5.6420   -2.0900   -3.3720 ho        1 MOL      0.420452
    175 H80         5.5660   -3.5060   -2.8470 ho        1 MOL      0.420452
    176 O26         3.1610   -0.1770   -1.1320 oh        1 MOL     -0.851767
    177 H81         2.5660   -0.8890   -1.3930 ho        1 MOL      0.420452
    178 H82         2.7230    0.6150   -1.4390 ho        1 MOL      0.420452
    179 O27         4.0500   -3.3410    0.0080 oh        1 MOL     -0.851767
    180 H83         4.6050   -3.9950   -0.4290 ho        1 MOL      0.420452
    181 H84         3.1750   -3.4700   -0.3770 ho        1 MOL      0.420452
@<TRIPOS>BOND
     1    1    2 1   
     2    1    4 1   
     3    1    5 1   
     4    1    6 1   
     5    2    3 2   
     6    2    7 1   
     7    7    8 1   
     8    7   15 1   
     9    8    9 1   
    10    8   11 1   
    11    8   16 1   
    12    9   10 2   
    13    9   19 1   
    14   11   12 1   
    15   11   17 1   
    16   11   18 1   
    17   12   13 1   
    18   12   14 1   
    19   19   20 1   
    20   19   24 1   
    21   20   21 1   
    22   20   23 1   
    23   20   25 1   
    24   21   22 2   
    25   21   29 1   
    26   23   26 1   
    27   23   27 1   
    28   23   28 1   
    29   29   30 1   
    30   29   37 1   
    31   30   31 1   
    32   30   33 1   
    33   30   38 1   
    34   31   32 2   
    35   31   41 1   
    36   33   34 1   
    37   33   39 1   
    38   33   40 1   
    39   34   35 1   
    40   34   36 1   
    41   41   42 1   
    42   41   45 1   
    43   42   43 1   
    44   42   46 1   
    45   42   47 1   
    46   43   44 2   
    47   43   48 1   
    48   48   49 1   
    49   48   56 1   
    50   49   50 1   
    51   49   52 1   
    52   49   57 1   
    53   50   51 2   
    54   50   62 1   
    55   52   53 1   
    56   52   58 1   
    57   52   59 1   
    58   53   54 1   
    59   53   55 2   
    60   54   60 1   
    61   54   61 1   
    62   62   63 1   
    63   62   66 1   
    64   63   64 1   
    65   63   67 1   
    66   63   68 1   
    67   64   65 2   
    68   64   69 1   
    69   69   70 1   
    70   69   76 1   
    71   70   71 1   
    72   70   73 1   
    73   70   77 1   
    74   71   72 2   
    75   71   83 1   
    76   73   74 1   
    77   73   75 1   
    78   73   78 1   
    79   74   80 1   
    80   74   81 1   
    81   74   82 1   
    82   75   79 1   
    83   83   84 1   
    84   83   91 1   
    85   84   85 1   
    86   84   87 1   
    87   84   92 1   
    88   85   86 2   
    89   85  102 1   
    90   87   88 1   
    91   87   89 1   
    92   87   93 1   
    93   88   90 1   
    94   88   94 1   
    95   88   95 1   
    96   89   96 1   
    97   89   97 1   
    98   89   98 1   
    99   90   99 1   
   100   90  100 1   
   101   90  101 1   
   102  102  103 1   
   103  102  110 1   
   104  103  104 1   
   105  103  106 1   
   106  103  111 1   
   107  104  105 2   
   108  104  114 1   
   109  106  107 1   
   110  106  112 1   
   111  106  113 1   
   112  107  108 1   
   113  107  109 1   
   114  114  115 1   
   115  114  125 1   
   116  115  116 1   
   117  115  118 1   
   118  115  126 1   
   119  116  117 2   
   120  116  134 1   
   121  118  119 1   
   122  118  127 1   
   123  118  128 1   
   124  119  120 ar  
   125  119  121 ar  
   126  120  122 ar  
   127  120  129 1   
   128  121  123 ar  
   129  121  130 1   
   130  122  124 ar  
   131  122  131 1   
   132  123  124 ar  
   133  123  132 1   
   134  124  133 1   
   135  134  135 1   
   136  134  140 1   
   137  135  136 1   
   138  135  138 1   
   139  135  141 1   
   140  136  137 2   
   141  136  148 1   
   142  138  139 1   
   143  138  142 1   
   144  138  143 1   
   145  139  140 1   
   146  139  144 1   
   147  139  145 1   
   148  140  146 1   
   149  140  147 1   
   150  148  149 1   
   151  148  157 1   
   152  149  150 1   
   153  149  152 1   
   154  149  158 1   
   155  150  151 2   
   156  150  163 1   
   157  152  153 1   
   158  152  159 1   
   159  152  160 1   
   160  153  154 1   
   161  153  161 1   
   162  153  162 1   
   163  154  155 1   
   164  154  156 1   
   165  163  164 1   
   166  163  168 1   
   167  164  165 1   
   168  164  166 1   
   169  164  167 1   
   170  170  171 1   
   171  170  172 1   
   172  173  174 1   
   173  173  175 1   
   174  176  177 1   
   175  176  178 1   
   176  179  180 1   
   177  179  181 1   
@<TRIPOS>SUBSTRUCTURE
     1 MOL         1 TEMP              0 ****  ****    0 ROOT
