@<TRIPOS>MOLECULE
MOL
  198   191     1     0     0
SMALL
resp


@<TRIPOS>ATOM
      1 C1          3.2520    3.9180    2.5120 c3        1 MOL     -0.414757
      2 C2          2.1170    3.8730    1.4960 c         1 MOL      0.978289
      3 O1          1.5270    2.7830    1.3780 o         1 MOL     -0.604835
      4 H1          3.7260    4.8990    2.4840 hc        1 MOL      0.073794
      5 H2          2.8540    3.7340    3.5100 hc        1 MOL      0.073794
      6 H3          3.9890    3.1520    2.2680 hc        1 MOL      0.073794
      7 N1          1.8790    4.9540    0.7940 n         1 MOL     -0.899954
      8 C3          0.7580    4.9930   -0.2150 c3        1 MOL     -0.053157
      9 C4         -0.6110    4.5580    0.3490 c         1 MOL      0.677812
     10 O2         -1.5330    4.1970   -0.4380 o         1 MOL     -0.550416
     11 C5          1.3010    4.3260   -1.6010 c3        1 MOL     -0.468792
     12 C6          2.7200    4.7800   -1.8710 c         1 MOL      0.740425
     13 O3          3.6580    3.9940   -2.0990 o         1 MOL     -0.693746
     14 O4          3.0260    5.9800   -1.8680 o         1 MOL     -0.693746
     15 H4          2.2720    5.8570    1.0210 hn        1 MOL      0.411123
     16 H5          0.5840    6.0520   -0.4100 h1        1 MOL      0.128868
     17 H6          0.6300    4.5590   -2.4210 hc        1 MOL      0.186901
     18 H7          1.2370    3.2460   -1.4760 hc        1 MOL      0.186901
     19 N2         -0.7990    4.4810    1.6830 n         1 MOL     -0.450718
     20 C7         -1.9930    3.8600    2.2510 c3        1 MOL     -0.434291
     21 C8         -3.2190    4.8420    2.3080 c         1 MOL      0.596404
     22 O5         -3.1030    6.0820    2.4440 o         1 MOL     -0.596929
     23 C9         -1.7110    3.4490    3.7700 c3        1 MOL      0.185195
     24 C10        -0.8030    4.4020    4.6140 c3        1 MOL      0.174942
     25 C11        -0.9810    2.0520    3.7100 c3        1 MOL      0.003121
     26 C12        -0.3750    3.8130    6.0300 c3        1 MOL     -0.178075
     27 H8         -0.1450    4.9230    2.3130 hn        1 MOL      0.337641
     28 H9         -2.3080    2.9400    1.7640 h1        1 MOL      0.295977
     29 H10        -2.6750    3.2950    4.2340 hc        1 MOL      0.038880
     30 H11        -1.3270    5.3330    4.8180 hc        1 MOL     -0.057065
     31 H12         0.1410    4.5860    4.1040 hc        1 MOL     -0.057065
     32 H13        -1.4670    1.3390    3.0420 hc        1 MOL      0.003892
     33 H14         0.0350    2.2670    3.3920 hc        1 MOL      0.003892
     34 H15        -1.0910    1.5030    4.6420 hc        1 MOL      0.003892
     35 H16        -0.1000    4.6030    6.7310 hc        1 MOL      0.032053
     36 H17        -1.2080    3.2920    6.5100 hc        1 MOL      0.032053
     37 H18         0.3540    3.0190    5.8680 hc        1 MOL      0.032053
     38 N3         -4.5400    4.5230    2.1100 n         1 MOL     -0.383135
     39 C13        -5.0740    3.1570    1.8540 c3        1 MOL     -0.020035
     40 C14        -4.9890    2.7380    0.3470 c         1 MOL      0.317434
     41 O6         -4.9160    1.5700   -0.0220 o         1 MOL     -0.352213
     42 C15        -6.5370    3.0010    2.3890 c3        1 MOL     -0.100504
     43 C16        -6.8640    3.8170    3.6590 c         1 MOL      0.686753
     44 O7         -8.0190    4.2320    3.8260 o         1 MOL     -0.691589
     45 O8         -5.9700    3.8690    4.5560 o         1 MOL     -0.691589
     46 H19        -5.1640    5.3200    2.0710 hn        1 MOL      0.292328
     47 H20        -4.3720    2.4850    2.3450 h1        1 MOL     -0.038061
     48 H21        -6.6110    1.9600    2.7000 hc        1 MOL      0.026583
     49 H22        -7.2510    3.2880    1.6110 hc        1 MOL      0.026583
     50 N4         -5.0870    3.7410   -0.5400 n         1 MOL     -0.147501
     51 C17        -5.0970    3.5080   -2.0150 c3        1 MOL     -0.278253
     52 C18        -6.3040    2.5880   -2.3470 c         1 MOL      0.468035
     53 O9         -7.4180    3.0420   -2.2010 o         1 MOL     -0.550770
     54 H23        -5.0290    4.6900   -0.2240 hn        1 MOL      0.229555
     55 H24        -4.1900    2.9870   -2.3170 h1        1 MOL      0.125649
     56 H25        -5.0700    4.4740   -2.5060 h1        1 MOL      0.125649
     57 N5         -6.1320    1.3540   -2.8100 n         1 MOL     -0.348982
     58 C19        -7.3170    0.4670   -3.1310 c3        1 MOL      0.079403
     59 C20        -7.8620   -0.2440   -1.8470 c         1 MOL      0.406451
     60 O10        -9.0080   -0.6920   -1.9420 o         1 MOL     -0.539857
     61 C21        -6.9280   -0.5660   -4.2440 c3        1 MOL     -0.237888
     62 C22        -5.6250   -1.3240   -3.8820 c         1 MOL      0.680603
     63 O11        -5.4200   -1.8020   -2.7570 o         1 MOL     -0.689064
     64 O12        -4.8020   -1.4590   -4.8070 o         1 MOL     -0.689064
     65 H26        -5.2010    1.0580   -3.0480 hn        1 MOL      0.296408
     66 H27        -8.1630    1.0550   -3.4980 h1        1 MOL      0.082594
     67 H28        -6.7150   -0.0050   -5.1600 hc        1 MOL      0.043152
     68 H29        -7.7450   -1.2790   -4.3580 hc        1 MOL      0.043152
     69 N6         -7.1140   -0.2960   -0.6660 n         1 MOL     -0.066605
     70 C23        -7.5550   -0.7970    0.6360 c3        1 MOL     -0.270993
     71 C24        -6.9900   -2.1820    0.9930 c         1 MOL      0.524912
     72 O13        -7.2650   -2.6860    2.0770 o         1 MOL     -0.586128
     73 H30        -6.1840    0.0990   -0.6760 hn        1 MOL      0.104873
     74 H31        -8.6320   -0.7950    0.7140 h1        1 MOL      0.123490
     75 H32        -7.1670   -0.1730    1.4380 h1        1 MOL      0.123490
     76 N7         -6.1800   -2.7200    0.1310 n         1 MOL      0.009491
     77 C25        -5.3510   -3.8760    0.3100 c3        1 MOL      0.097905
     78 C26        -4.4230   -3.7170    1.5610 c         1 MOL      0.246833
     79 O14        -4.0440   -4.6270    2.2300 o         1 MOL     -0.509112
     80 C27        -6.1470   -5.2150    0.3320 c3        1 MOL      0.038360
     81 C28        -6.6700   -5.5900   -1.0700 c3        1 MOL     -0.130219
     82 C29        -7.7660   -4.6330   -1.6170 c         1 MOL      0.561610
     83 N8         -7.4200   -3.7640   -2.4950 n         1 MOL     -0.764401
     84 O15        -8.9560   -4.6540   -1.2910 o         1 MOL     -0.584310
     85 H33        -6.2150   -2.3060   -0.7890 hn        1 MOL      0.036464
     86 H34        -4.6520   -3.8420   -0.5170 h1        1 MOL      0.052885
     87 H35        -7.0310   -5.1550    0.9550 hc        1 MOL      0.010714
     88 H36        -5.4740   -6.0280    0.5960 hc        1 MOL      0.010714
     89 H37        -7.0900   -6.5870   -0.9570 hc        1 MOL      0.025453
     90 H38        -5.8500   -5.5740   -1.7930 hc        1 MOL      0.025453
     91 H39        -6.4840   -3.4490   -2.7320 hn        1 MOL      0.371411
     92 H40        -8.1020   -3.2010   -2.9840 hn        1 MOL      0.371411
     93 N9         -3.9870   -2.5130    1.8120 n         1 MOL      0.013944
     94 C30        -2.9620   -2.1310    2.8590 c3        1 MOL     -0.129724
     95 C31        -1.6140   -1.8010    2.2920 c         1 MOL      0.706852
     96 O16        -0.6470   -1.5010    2.9680 o         1 MOL     -0.577938
     97 C32        -3.5300   -1.0530    3.8530 c3        1 MOL      0.166147
     98 C33        -3.9420    0.2150    3.1070 c3        1 MOL     -0.151133
     99 C34        -4.6690   -1.5990    4.6740 c3        1 MOL     -0.151133
    100 H41        -4.2240   -1.7650    1.1800 hn        1 MOL      0.072328
    101 H42        -2.7390   -2.9840    3.4970 h1        1 MOL      0.084423
    102 H43        -2.7120   -0.7900    4.5260 hc        1 MOL     -0.018625
    103 H44        -4.8770    0.0200    2.5720 hc        1 MOL      0.038283
    104 H45        -4.1540    0.9590    3.8780 hc        1 MOL      0.038283
    105 H46        -3.2980    0.4880    2.2670 hc        1 MOL      0.038283
    106 H47        -4.3380   -2.4350    5.2820 hc        1 MOL      0.038283
    107 H48        -4.9100   -0.8950    5.4810 hc        1 MOL      0.038283
    108 H49        -5.5140   -1.8880    4.0380 hc        1 MOL      0.038283
    109 N10        -1.6150   -1.7350    0.8990 n         1 MOL     -0.725396
    110 C35        -0.3940   -1.6510    0.0510 c3        1 MOL      0.095420
    111 C36         0.3560   -2.9530   -0.3160 c         1 MOL      0.629120
    112 O17        -0.3260   -3.9780   -0.5210 o         1 MOL     -0.514967
    113 C37        -0.8400   -0.8460   -1.1970 c3        1 MOL     -0.299452
    114 C38        -1.2870    0.5180   -1.0840 c         1 MOL      0.658118
    115 N11        -0.8510    1.2240   -0.0900 n         1 MOL     -0.689732
    116 O18        -2.1080    1.0070   -1.8450 o         1 MOL     -0.583663
    117 H50        -2.5480   -1.6220    0.5330 hn        1 MOL      0.362944
    118 H51         0.3340   -1.1670    0.6850 h1        1 MOL      0.053451
    119 H52        -1.6550   -1.4340   -1.6400 hc        1 MOL      0.111560
    120 H53         0.0100   -0.7620   -1.8740 hc        1 MOL      0.111560
    121 H54        -0.2090    0.7800    0.5530 hn        1 MOL      0.337324
    122 H55        -0.9860    2.2240   -0.1090 hn        1 MOL      0.337324
    123 N12         1.6650   -2.8980   -0.3020 n         1 MOL     -0.485387
    124 C39         2.4760   -4.0630   -0.5120 c3        1 MOL      0.176492
    125 C40         3.7940   -3.8540    0.0970 c         1 MOL      0.627315
    126 O19         4.0580   -2.7320    0.4420 o         1 MOL     -0.538619
    127 C41         2.7370   -4.1860   -2.0480 c3        1 MOL     -0.227751
    128 C42         1.5870   -4.4980   -2.9240 ca        1 MOL      0.082517
    129 C43         0.9730   -3.4530   -3.6130 ca        1 MOL     -0.172611
    130 C44         1.1180   -5.8190   -3.0190 ca        1 MOL     -0.172611
    131 C45        -0.1620   -3.6730   -4.3460 ca        1 MOL     -0.313681
    132 C46        -0.0260   -6.0950   -3.7760 ca        1 MOL     -0.313681
    133 C47        -0.7200   -4.9920   -4.4020 ca        1 MOL      0.447036
    134 O20        -1.7330   -5.2950   -5.2650 oh        1 MOL     -0.578886
    135 H56         2.0720   -1.9970   -0.1020 hn        1 MOL      0.274443
    136 H57         1.9990   -4.9230   -0.0540 h1        1 MOL      0.048368
    137 H58         3.3850   -5.0510   -2.1960 hc        1 MOL      0.070998
    138 H59         3.1040   -3.2010   -2.3440 hc        1 MOL      0.070998
    139 H60         1.3190   -2.4340   -3.5780 ha        1 MOL      0.151293
    140 H61         1.5400   -6.5840   -2.3920 ha        1 MOL      0.151293
    141 H62        -0.7040   -2.8880   -4.8640 ha        1 MOL      0.161783
    142 H63        -0.4680   -7.0770   -3.8570 ha        1 MOL      0.161783
    143 H64        -2.1550   -4.5420   -5.6780 ho        1 MOL      0.415962
    144 N13         4.5770   -4.9190    0.3630 n         1 MOL     -0.755794
    145 C48         5.9390   -4.7500    0.9710 c3        1 MOL      0.571768
    146 C49         7.0440   -4.5430   -0.0190 c         1 MOL      0.426386
    147 O21         7.3990   -5.3930   -0.7780 o         1 MOL     -0.532438
    148 C50         6.2380   -6.0560    1.7750 c3        1 MOL     -0.337149
    149 C51         7.3570   -5.8900    2.7080 c3        1 MOL      0.048588
    150 C52         7.7660   -7.1280    3.5530 c         1 MOL      0.662005
    151 O22         7.7610   -8.2190    3.0040 o         1 MOL     -0.700686
    152 O23         8.2080   -6.8890    4.6690 o         1 MOL     -0.700686
    153 H65         4.2910   -5.8120   -0.0120 hn        1 MOL      0.331262
    154 H66         5.8660   -3.9060    1.6510 h1        1 MOL     -0.062707
    155 H67         6.5410   -6.8160    1.0550 hc        1 MOL      0.075335
    156 H68         5.3420   -6.3870    2.3130 hc        1 MOL      0.075335
    157 H69         7.0980   -5.0570    3.3530 hc        1 MOL     -0.012593
    158 H70         8.2860   -5.5190    2.2650 hc        1 MOL     -0.012593
    159 N14         7.8100   -3.4150   -0.0710 n         1 MOL     -0.553895
    160 C53         7.6530   -2.1580    0.6500 c3        1 MOL      0.166737
    161 C54         8.3110   -2.0640    2.0850 c         1 MOL      0.337133
    162 O24         9.4180   -2.6210    2.3140 o         1 MOL     -0.511152
    163 C55         8.1020   -0.8720   -0.1820 c3        1 MOL      0.316297
    164 C56         7.2330   -0.8100   -1.4970 c3        1 MOL     -0.329976
    165 C57         6.9880    0.6580   -1.9340 c         1 MOL      0.758122
    166 O25         5.8790    0.9420   -2.4920 o         1 MOL     -0.703505
    167 O26         7.9470    1.4570   -1.8200 o         1 MOL     -0.703505
    168 H71         8.6470   -3.5830   -0.6060 hn        1 MOL      0.333836
    169 H72         6.5820   -2.0270    0.8260 h1        1 MOL      0.025403
    170 H73         9.1650   -0.8960   -0.4110 hc        1 MOL     -0.102187
    171 H74         7.9220   -0.0040    0.4620 hc        1 MOL     -0.102187
    172 H75         6.2990   -1.3310   -1.3300 hc        1 MOL      0.079622
    173 H76         7.7850   -1.3940   -2.2380 hc        1 MOL      0.079622
    174 N15         7.7220   -1.2970    3.0480 n         1 MOL     -0.217869
    175 C58         8.1850   -0.7600    4.4090 c3        1 MOL     -0.218616
    176 H77         9.0080   -1.3720    4.7790 h1        1 MOL      0.101753
    177 H78         8.5210    0.2700    4.2970 h1        1 MOL      0.101753
    178 H79         7.3570   -0.7990    5.1170 h1        1 MOL      0.101753
    179 H80         6.7680   -1.0180    2.8620 hn        1 MOL      0.220040
    180 Ca1         5.7030    5.4940   -1.9520 Ca        1 MOL      1.711626
    181 O27         7.8700    6.6590   -0.6730 oh        1 MOL     -0.831419
    182 O28         8.1220    5.8040   -3.8580 oh        1 MOL     -0.831419
    183 H81         7.9080    7.3930   -0.0470 ho        1 MOL      0.395208
    184 H82         9.0400    5.8280   -3.5770 ho        1 MOL      0.395208
    185 H83         8.4190    5.9790   -0.2750 ho        1 MOL      0.395208
    186 H84         8.1730    5.8190   -4.8180 ho        1 MOL      0.395208
    187 O29         5.4460    8.0860   -1.5670 oh        1 MOL     -0.831419
    188 H85         4.8250    8.7010   -1.9730 ho        1 MOL      0.395208
    189 H86         6.2530    8.5930   -1.4720 ho        1 MOL      0.395208
    190 O30         5.0640    5.9080   -4.4700 oh        1 MOL     -0.831419
    191 H87         4.3890    6.4940   -4.8160 ho        1 MOL      0.395208
    192 H88         5.0000    5.1280   -5.0230 ho        1 MOL      0.395208
    193 O31         6.2690    3.2530   -3.6110 oh        1 MOL     -0.831419
    194 H89         6.2100    2.3810   -3.2190 ho        1 MOL      0.395208
    195 H90         6.5980    3.0860   -4.4970 ho        1 MOL      0.395208
    196 O32         7.6810    3.9740   -1.1500 oh        1 MOL     -0.831419
    197 H91         7.8090    3.1620   -1.6350 ho        1 MOL      0.395208
    198 H92         8.4400    4.0290   -0.5610 ho        1 MOL      0.395208
@<TRIPOS>BOND
     1    1    2 1   
     2    1    4 1   
     3    1    5 1   
     4    1    6 1   
     5    2    3 2   
     6    2    7 1   
     7    7    8 1   
     8    7   15 1   
     9    8    9 1   
    10    8   11 1   
    11    8   16 1   
    12    9   10 2   
    13    9   19 1   
    14   11   12 1   
    15   11   17 1   
    16   11   18 1   
    17   12   13 1   
    18   12   14 1   
    19   19   20 1   
    20   19   27 1   
    21   20   21 1   
    22   20   23 1   
    23   20   28 1   
    24   21   22 2   
    25   21   38 1   
    26   23   24 1   
    27   23   25 1   
    28   23   29 1   
    29   24   26 1   
    30   24   30 1   
    31   24   31 1   
    32   25   32 1   
    33   25   33 1   
    34   25   34 1   
    35   26   35 1   
    36   26   36 1   
    37   26   37 1   
    38   38   39 1   
    39   38   46 1   
    40   39   40 1   
    41   39   42 1   
    42   39   47 1   
    43   40   41 2   
    44   40   50 1   
    45   42   43 1   
    46   42   48 1   
    47   42   49 1   
    48   43   44 1   
    49   43   45 1   
    50   50   51 1   
    51   50   54 1   
    52   51   52 1   
    53   51   55 1   
    54   51   56 1   
    55   52   53 2   
    56   52   57 1   
    57   57   58 1   
    58   57   65 1   
    59   58   59 1   
    60   58   61 1   
    61   58   66 1   
    62   59   60 2   
    63   59   69 1   
    64   61   62 1   
    65   61   67 1   
    66   61   68 1   
    67   62   63 1   
    68   62   64 1   
    69   69   70 1   
    70   69   73 1   
    71   70   71 1   
    72   70   74 1   
    73   70   75 1   
    74   71   72 2   
    75   71   76 1   
    76   76   77 1   
    77   76   85 1   
    78   77   78 1   
    79   77   80 1   
    80   77   86 1   
    81   78   79 2   
    82   78   93 1   
    83   80   81 1   
    84   80   87 1   
    85   80   88 1   
    86   81   82 1   
    87   81   89 1   
    88   81   90 1   
    89   82   83 1   
    90   82   84 2   
    91   83   91 1   
    92   83   92 1   
    93   93   94 1   
    94   93  100 1   
    95   94   95 1   
    96   94   97 1   
    97   94  101 1   
    98   95   96 2   
    99   95  109 1   
   100   97   98 1   
   101   97   99 1   
   102   97  102 1   
   103   98  103 1   
   104   98  104 1   
   105   98  105 1   
   106   99  106 1   
   107   99  107 1   
   108   99  108 1   
   109  109  110 1   
   110  109  117 1   
   111  110  111 1   
   112  110  113 1   
   113  110  118 1   
   114  111  112 2   
   115  111  123 1   
   116  113  114 1   
   117  113  119 1   
   118  113  120 1   
   119  114  115 1   
   120  114  116 2   
   121  115  121 1   
   122  115  122 1   
   123  123  124 1   
   124  123  135 1   
   125  124  125 1   
   126  124  127 1   
   127  124  136 1   
   128  125  126 2   
   129  125  144 1   
   130  127  128 1   
   131  127  137 1   
   132  127  138 1   
   133  128  129 ar  
   134  128  130 ar  
   135  129  131 ar  
   136  129  139 1   
   137  130  132 ar  
   138  130  140 1   
   139  131  133 ar  
   140  131  141 1   
   141  132  133 ar  
   142  132  142 1   
   143  133  134 1   
   144  134  143 1   
   145  144  145 1   
   146  144  153 1   
   147  145  146 1   
   148  145  148 1   
   149  145  154 1   
   150  146  147 2   
   151  146  159 1   
   152  148  149 1   
   153  148  155 1   
   154  148  156 1   
   155  149  150 1   
   156  149  157 1   
   157  149  158 1   
   158  150  151 1   
   159  150  152 1   
   160  159  160 1   
   161  159  168 1   
   162  160  161 1   
   163  160  163 1   
   164  160  169 1   
   165  161  162 2   
   166  161  174 1   
   167  163  164 1   
   168  163  170 1   
   169  163  171 1   
   170  164  165 1   
   171  164  172 1   
   172  164  173 1   
   173  165  166 1   
   174  165  167 1   
   175  174  175 1   
   176  174  179 1   
   177  175  176 1   
   178  175  177 1   
   179  175  178 1   
   180  181  183 1   
   181  181  185 1   
   182  182  184 1   
   183  182  186 1   
   184  187  188 1   
   185  187  189 1   
   186  190  191 1   
   187  190  192 1   
   188  193  194 1   
   189  193  195 1   
   190  196  197 1   
   191  196  198 1   
@<TRIPOS>SUBSTRUCTURE
     1 MOL         1 TEMP              0 ****  ****    0 ROOT
