@<TRIPOS>MOLECULE
MOL
  181   177     1     0     0
SMALL
resp


@<TRIPOS>ATOM
      1 C1         10.2970   -7.0740    1.4510 c3        1 MOL     -0.272822
      2 C2          9.1950   -6.4620    0.5720 c         1 MOL      0.731543
      3 O1          8.5580   -7.2230   -0.1280 o         1 MOL     -0.623075
      4 H1         10.0690   -6.8870    2.5000 hc        1 MOL      0.058573
      5 H2         10.3450   -8.1490    1.2770 hc        1 MOL      0.058573
      6 H3         11.2550   -6.6210    1.2010 hc        1 MOL      0.058573
      7 N1          8.9270   -5.1850    0.4160 n         1 MOL     -0.616657
      8 C3          9.6430   -4.0870    1.0560 c3        1 MOL      0.375927
      9 C4         10.3180   -3.1620    0.0700 c         1 MOL      0.206989
     10 O2          9.8950   -3.0790   -1.0720 o         1 MOL     -0.349759
     11 C5          8.7590   -3.3790    2.1230 c3        1 MOL     -0.102393
     12 C6          7.5650   -2.6160    1.4560 c         1 MOL      0.668161
     13 O3          6.8160   -3.1870    0.6270 o         1 MOL     -0.721929
     14 O4          7.3070   -1.4590    1.8310 o         1 MOL     -0.721929
     15 H4          8.2630   -4.9490   -0.3010 hn        1 MOL      0.371905
     16 H5         10.4300   -4.5270    1.6770 h1        1 MOL     -0.077998
     17 H6          9.3620   -2.5510    2.5150 hc        1 MOL     -0.013005
     18 H7          8.4370   -4.0390    2.9180 hc        1 MOL     -0.013005
     19 N2         11.3320   -2.4860    0.5890 n         1 MOL     -0.275905
     20 C7         12.1700   -1.4630   -0.1180 c3        1 MOL      0.013169
     21 C8         11.4760   -0.3010   -0.9270 c         1 MOL      0.643154
     22 O5         12.1760    0.3360   -1.7240 o         1 MOL     -0.550243
     23 C9         13.2380   -2.3190   -0.9040 c3        1 MOL     -0.258617
     24 H8         11.5450   -2.5810    1.5750 hn        1 MOL      0.251771
     25 H9         12.7510   -0.9920    0.6670 h1        1 MOL      0.040018
     26 H10        13.6200   -3.1100   -0.2670 hc        1 MOL      0.079109
     27 H11        12.7580   -2.7730   -1.7700 hc        1 MOL      0.079109
     28 H12        14.0510   -1.6790   -1.2370 hc        1 MOL      0.079109
     29 N3         10.2180    0.1080   -0.5830 n         1 MOL     -0.530124
     30 C10         9.5150    1.2430   -1.1760 c3        1 MOL      0.128046
     31 C11         8.4700    2.0120   -0.3850 c         1 MOL      0.418107
     32 O6          7.9320    1.4280    0.5980 o         1 MOL     -0.495498
     33 C12         8.8040    0.8280   -2.4980 c3        1 MOL      0.042299
     34 C13         8.1400   -0.5050   -2.4020 c         1 MOL      0.551896
     35 O7          7.4380   -0.7850   -1.3560 o         1 MOL     -0.641701
     36 O8          8.3250   -1.2980   -3.3510 o         1 MOL     -0.641701
     37 H13         9.6490   -0.4880   -0.0010 hn        1 MOL      0.264524
     38 H14        10.2430    2.0060   -1.4640 h1        1 MOL      0.010817
     39 H15         9.5730    0.8470   -3.2720 hc        1 MOL     -0.009111
     40 H16         8.0350    1.5390   -2.8040 hc        1 MOL     -0.009111
     41 N4          8.1590    3.2970   -0.6850 n         1 MOL     -0.406721
     42 C14         7.0570    3.9920    0.1310 c3        1 MOL     -0.079699
     43 C15         5.6360    3.3840    0.1170 c         1 MOL      0.698523
     44 O9          5.4140    2.2230   -0.2900 o         1 MOL     -0.654501
     45 H17         8.6730    3.8400   -1.3670 hn        1 MOL      0.274118
     46 H18         6.8740    5.0080   -0.2340 h1        1 MOL      0.075672
     47 H19         7.4360    4.1930    1.1270 h1        1 MOL      0.075672
     48 N5          4.6990    4.1400    0.6980 n         1 MOL     -0.649314
     49 C16         3.3880    3.5840    1.1890 c3        1 MOL      0.510628
     50 C17         2.2340    4.4630    0.8510 c         1 MOL      0.479478
     51 O10         2.4850    5.6320    0.7820 o         1 MOL     -0.560381
     52 C18         3.6910    3.2170    2.5970 c3        1 MOL     -0.347095
     53 C19         4.7580    2.1390    2.7330 c         1 MOL      0.753263
     54 N6          5.8250    2.4650    3.4030 n         1 MOL     -0.736032
     55 O11         4.7030    1.0430    2.1730 o         1 MOL     -0.703411
     56 H20         4.9320    5.1060    0.8790 hn        1 MOL      0.293119
     57 H21         3.2430    2.6970    0.5810 h1        1 MOL     -0.030532
     58 H22         2.8250    2.8520    3.1480 hc        1 MOL      0.069242
     59 H23         4.0620    4.0860    3.1460 hc        1 MOL      0.069242
     60 H24         5.9050    3.3250    3.9200 hn        1 MOL      0.359253
     61 H25         6.3680    1.6350    3.6030 hn        1 MOL      0.359253
     62 N7          1.0600    3.8890    0.6160 n         1 MOL     -0.442160
     63 C20        -0.2330    4.5330    0.3920 c3        1 MOL      0.116757
     64 C21        -0.3320    5.4450   -0.8140 c         1 MOL      0.645070
     65 O12         0.3160    5.1840   -1.8280 o         1 MOL     -0.549938
     66 H26         1.1020    2.8880    0.7180 hn        1 MOL      0.221452
     67 H27        -0.4580    5.0680    1.3150 h1        1 MOL      0.060583
     68 H28        -0.9570    3.7370    0.2110 h1        1 MOL      0.060583
     69 N8         -1.2030    6.4520   -0.8440 n         1 MOL     -0.582568
     70 C22        -2.0650    6.9020    0.3060 c3        1 MOL     -0.005214
     71 C23        -3.0250    5.7170    0.7070 c         1 MOL      0.211370
     72 O13        -3.0580    5.4270    1.8890 o         1 MOL     -0.501318
     73 C24        -2.8000    8.2180   -0.0350 c3        1 MOL      0.311102
     74 C25        -1.8560    9.3960   -0.2440 c3        1 MOL     -0.308175
     75 O14        -3.4790    8.0240   -1.2300 oh        1 MOL     -0.600050
     76 H29        -1.2700    7.0070   -1.6820 hn        1 MOL      0.289839
     77 H30        -1.5280    7.1070    1.2310 h1        1 MOL      0.075847
     78 H31        -3.5930    8.4840    0.6620 h1        1 MOL      0.076847
     79 H32        -2.8440    8.0400   -1.9630 ho        1 MOL      0.389260
     80 H33        -2.4550   10.1190   -0.7890 hc        1 MOL      0.075780
     81 H34        -1.5940    9.8630    0.7080 hc        1 MOL      0.075780
     82 H35        -0.9670    9.1980   -0.8360 hc        1 MOL      0.075780
     83 N9         -3.6410    5.1180   -0.2900 n         1 MOL      0.023566
     84 C26        -4.5100    3.9570   -0.0710 c3        1 MOL     -0.072739
     85 C27        -4.4390    2.9400   -1.2130 c         1 MOL      0.287333
     86 O15        -4.2110    3.2420   -2.3700 o         1 MOL     -0.515601
     87 C28        -5.9770    4.4350    0.2690 c3        1 MOL      0.169808
     88 C29        -6.7480    3.3180    0.9890 c3        1 MOL      0.036970
     89 C30        -6.6360    5.1210   -0.8990 c3        1 MOL     -0.291258
     90 C31        -8.1410    3.7160    1.4780 c3        1 MOL     -0.260145
     91 H36        -3.5450    5.5320   -1.2010 hn        1 MOL      0.176903
     92 H37        -4.1000    3.5120    0.8410 h1        1 MOL      0.036408
     93 H38        -5.8650    5.2250    1.0110 hc        1 MOL      0.015635
     94 H39        -6.1220    3.0350    1.8440 hc        1 MOL      0.018018
     95 H40        -6.8310    2.4220    0.3740 hc        1 MOL      0.018018
     96 H41        -6.1050    6.0410   -1.1530 hc        1 MOL      0.056081
     97 H42        -6.7350    4.5020   -1.7830 hc        1 MOL      0.056081
     98 H43        -7.6590    5.3790   -0.6380 hc        1 MOL      0.056081
     99 H44        -8.8820    3.7840    0.6820 hc        1 MOL      0.053975
    100 H45        -8.6200    2.9850    2.1330 hc        1 MOL      0.053975
    101 H46        -8.0140    4.6970    1.9530 hc        1 MOL      0.053975
    102 N10        -4.4790    1.6030   -0.9880 n         1 MOL     -0.106084
    103 C32        -4.5150    0.8640    0.2890 c3        1 MOL      0.137254
    104 C33        -5.8170    0.0330    0.4860 c         1 MOL      0.263042
    105 O16        -5.9310   -0.5890    1.5780 o         1 MOL     -0.507742
    106 C34        -3.2230    0.0510    0.5530 c3        1 MOL     -0.378144
    107 C35        -1.9570    0.8250    0.2800 c         1 MOL      0.834628
    108 O17        -1.5200    1.5850    1.1930 o         1 MOL     -0.710987
    109 O18        -1.3310    0.6530   -0.7760 o         1 MOL     -0.710987
    110 H47        -4.3310    1.0510   -1.8230 hn        1 MOL      0.239437
    111 H48        -4.4660    1.5540    1.1360 h1        1 MOL      0.091507
    112 H49        -3.3140   -0.8050   -0.1110 hc        1 MOL      0.092160
    113 H50        -3.1880   -0.2210    1.6110 hc        1 MOL      0.092160
    114 N11        -6.8140    0.0060   -0.4000 n         1 MOL     -0.325815
    115 C36        -8.0910   -0.7170   -0.2570 c3        1 MOL      0.535098
    116 C37        -8.6370   -1.3700   -1.5750 c         1 MOL      0.250918
    117 O19        -8.3100   -0.9340   -2.6960 o         1 MOL     -0.500476
    118 C38        -9.1070    0.1990    0.4050 c3        1 MOL     -0.135686
    119 C39       -10.2610   -0.4800    0.9950 ca        1 MOL      0.116909
    120 C40       -11.5520   -0.3770    0.3030 ca        1 MOL     -0.227301
    121 C41       -10.1640   -1.2490    2.1410 ca        1 MOL     -0.227301
    122 C42       -12.6550   -1.0470    0.9250 ca        1 MOL     -0.109232
    123 C43       -11.2380   -1.9730    2.6600 ca        1 MOL     -0.109232
    124 C44       -12.4540   -1.8890    2.0380 ca        1 MOL     -0.087705
    125 H51        -6.7490    0.5510   -1.2590 hn        1 MOL      0.165983
    126 H52        -7.8840   -1.5530    0.4110 h1        1 MOL     -0.027933
    127 H53        -9.4770    0.8460   -0.3950 hc        1 MOL      0.031589
    128 H54        -8.6250    0.7130    1.2300 hc        1 MOL      0.031589
    129 H55       -11.5380    0.1730   -0.6220 ha        1 MOL      0.142890
    130 H56        -9.1780   -1.2660    2.6070 ha        1 MOL      0.142890
    131 H57       -13.6720   -0.8530    0.6040 ha        1 MOL      0.106275
    132 H58       -11.1110   -2.5650    3.5470 ha        1 MOL      0.106275
    133 H59       -13.3750   -2.3190    2.4110 ha        1 MOL      0.073860
    134 N12        -9.4000   -2.4900   -1.5160 n         1 MOL     -0.014750
    135 C45        -9.6510   -3.4080   -0.3670 c3        1 MOL      0.084878
    136 C46        -8.4100   -3.9830    0.2500 c         1 MOL      0.461199
    137 O20        -8.2550   -3.8670    1.4490 o         1 MOL     -0.532300
    138 C47       -10.4960   -4.5720   -0.9350 c3        1 MOL     -0.281009
    139 C48       -11.1890   -3.9390   -2.1340 c3        1 MOL      0.141125
    140 C49       -10.1510   -2.9650   -2.6420 c3        1 MOL     -0.484932
    141 H60       -10.2780   -3.0010    0.4210 h1        1 MOL      0.092241
    142 H61        -9.9100   -5.4650   -1.1540 hc        1 MOL      0.091951
    143 H62       -11.1570   -4.9370   -0.1460 hc        1 MOL      0.091951
    144 H63       -11.4050   -4.6660   -2.9210 hc        1 MOL     -0.004237
    145 H64       -12.1030   -3.4460   -1.7970 hc        1 MOL     -0.004237
    146 H65        -9.4840   -3.6090   -3.2040 h1        1 MOL      0.191701
    147 H66       -10.6850   -2.1930   -3.1970 h1        1 MOL      0.191701
    148 N13        -7.5070   -4.4790   -0.5600 n         1 MOL     -0.474972
    149 C50        -6.2380   -5.1090   -0.0470 c3        1 MOL      0.247329
    150 C51        -6.4890   -6.5930    0.0390 c         1 MOL      0.313513
    151 O21        -6.8770   -7.2740   -0.9260 o         1 MOL     -0.588106
    152 C52        -5.1450   -4.8010   -0.9990 c3        1 MOL      0.025280
    153 C53        -4.6630   -3.3040   -0.8980 c3        1 MOL     -0.035566
    154 C54        -3.3360   -3.0950   -1.5500 c         1 MOL      0.615310
    155 O22        -3.3430   -2.4880   -2.6680 o         1 MOL     -0.699829
    156 O23        -2.3340   -3.4160   -0.8580 o         1 MOL     -0.699829
    157 H67        -7.8270   -4.5690   -1.5220 hn        1 MOL      0.292585
    158 H68        -5.9380   -4.7250    0.9280 h1        1 MOL      0.083825
    159 H69        -5.3390   -4.9510   -2.0570 hc        1 MOL     -0.004104
    160 H70        -4.2870   -5.4230   -0.7480 hc        1 MOL     -0.004104
    161 H71        -4.6380   -3.0480    0.1610 hc        1 MOL     -0.018278
    162 H72        -5.3660   -2.6410   -1.3930 hc        1 MOL     -0.018278
    163 N14        -6.3220   -7.2410    1.1510 n         1 MOL     -0.195436
    164 C55        -5.8510   -6.8180    2.4440 c3        1 MOL     -0.179058
    165 H73        -6.5930   -6.1660    2.9040 h1        1 MOL      0.079029
    166 H74        -5.6930   -7.6910    3.0760 h1        1 MOL      0.079029
    167 H75        -4.9120   -6.2770    2.3300 h1        1 MOL      0.079029
    168 H76        -6.5070   -8.2310    1.1230 hn        1 MOL      0.242676
    169 Ca1         5.5090   -0.5050    0.1460 Ca        1 MOL      1.725314
    170 O24         4.6500    0.1260   -2.2410 oh        1 MOL     -0.712785
    171 H77         3.7590   -0.0990   -2.5150 ho        1 MOL      0.368048
    172 H78         5.0890    0.4080   -3.0380 ho        1 MOL      0.368048
    173 O25         4.4410   -2.6930   -1.5700 oh        1 MOL     -0.712785
    174 H79         3.5650   -2.5740   -1.9430 ho        1 MOL      0.368048
    175 H80         5.0340   -2.7110   -2.3190 ho        1 MOL      0.368048
    176 O26         2.7270   -0.1610    0.2290 oh        1 MOL     -0.712785
    177 H81         2.0380   -0.4840   -0.3630 ho        1 MOL      0.368048
    178 H82         2.2920    0.5010    0.7680 ho        1 MOL      0.368048
    179 O27         4.3650   -2.2490    2.1130 oh        1 MOL     -0.712785
    180 H83         4.9350   -2.1270    2.8660 ho        1 MOL      0.368048
    181 H84         3.4880   -2.3220    2.4940 ho        1 MOL      0.368048
@<TRIPOS>BOND
     1    1    2 1   
     2    1    4 1   
     3    1    5 1   
     4    1    6 1   
     5    2    3 2   
     6    2    7 1   
     7    7    8 1   
     8    7   15 1   
     9    8    9 1   
    10    8   11 1   
    11    8   16 1   
    12    9   10 2   
    13    9   19 1   
    14   11   12 1   
    15   11   17 1   
    16   11   18 1   
    17   12   13 1   
    18   12   14 1   
    19   19   20 1   
    20   19   24 1   
    21   20   21 1   
    22   20   23 1   
    23   20   25 1   
    24   21   22 2   
    25   21   29 1   
    26   23   26 1   
    27   23   27 1   
    28   23   28 1   
    29   29   30 1   
    30   29   37 1   
    31   30   31 1   
    32   30   33 1   
    33   30   38 1   
    34   31   32 2   
    35   31   41 1   
    36   33   34 1   
    37   33   39 1   
    38   33   40 1   
    39   34   35 1   
    40   34   36 1   
    41   41   42 1   
    42   41   45 1   
    43   42   43 1   
    44   42   46 1   
    45   42   47 1   
    46   43   44 2   
    47   43   48 1   
    48   48   49 1   
    49   48   56 1   
    50   49   50 1   
    51   49   52 1   
    52   49   57 1   
    53   50   51 2   
    54   50   62 1   
    55   52   53 1   
    56   52   58 1   
    57   52   59 1   
    58   53   54 1   
    59   53   55 2   
    60   54   60 1   
    61   54   61 1   
    62   62   63 1   
    63   62   66 1   
    64   63   64 1   
    65   63   67 1   
    66   63   68 1   
    67   64   65 2   
    68   64   69 1   
    69   69   70 1   
    70   69   76 1   
    71   70   71 1   
    72   70   73 1   
    73   70   77 1   
    74   71   72 2   
    75   71   83 1   
    76   73   74 1   
    77   73   75 1   
    78   73   78 1   
    79   74   80 1   
    80   74   81 1   
    81   74   82 1   
    82   75   79 1   
    83   83   84 1   
    84   83   91 1   
    85   84   85 1   
    86   84   87 1   
    87   84   92 1   
    88   85   86 2   
    89   85  102 1   
    90   87   88 1   
    91   87   89 1   
    92   87   93 1   
    93   88   90 1   
    94   88   94 1   
    95   88   95 1   
    96   89   96 1   
    97   89   97 1   
    98   89   98 1   
    99   90   99 1   
   100   90  100 1   
   101   90  101 1   
   102  102  103 1   
   103  102  110 1   
   104  103  104 1   
   105  103  106 1   
   106  103  111 1   
   107  104  105 2   
   108  104  114 1   
   109  106  107 1   
   110  106  112 1   
   111  106  113 1   
   112  107  108 1   
   113  107  109 1   
   114  114  115 1   
   115  114  125 1   
   116  115  116 1   
   117  115  118 1   
   118  115  126 1   
   119  116  117 2   
   120  116  134 1   
   121  118  119 1   
   122  118  127 1   
   123  118  128 1   
   124  119  120 ar  
   125  119  121 ar  
   126  120  122 ar  
   127  120  129 1   
   128  121  123 ar  
   129  121  130 1   
   130  122  124 ar  
   131  122  131 1   
   132  123  124 ar  
   133  123  132 1   
   134  124  133 1   
   135  134  135 1   
   136  134  140 1   
   137  135  136 1   
   138  135  138 1   
   139  135  141 1   
   140  136  137 2   
   141  136  148 1   
   142  138  139 1   
   143  138  142 1   
   144  138  143 1   
   145  139  140 1   
   146  139  144 1   
   147  139  145 1   
   148  140  146 1   
   149  140  147 1   
   150  148  149 1   
   151  148  157 1   
   152  149  150 1   
   153  149  152 1   
   154  149  158 1   
   155  150  151 2   
   156  150  163 1   
   157  152  153 1   
   158  152  159 1   
   159  152  160 1   
   160  153  154 1   
   161  153  161 1   
   162  153  162 1   
   163  154  155 1   
   164  154  156 1   
   165  163  164 1   
   166  163  168 1   
   167  164  165 1   
   168  164  166 1   
   169  164  167 1   
   170  170  171 1   
   171  170  172 1   
   172  173  174 1   
   173  173  175 1   
   174  176  177 1   
   175  176  178 1   
   176  179  180 1   
   177  179  181 1   
@<TRIPOS>SUBSTRUCTURE
     1 MOL         1 TEMP              0 ****  ****    0 ROOT
