@<TRIPOS>MOLECULE
MOL
  192   187     1     0     0
SMALL
resp


@<TRIPOS>ATOM
      1 C1        -10.7080   -0.7330   -1.4430 c3        1 MOL     -0.464002
      2 C2         -9.2540   -0.9080   -1.0330 c         1 MOL      0.690964
      3 O1         -8.5160   -1.6870   -1.6550 o         1 MOL     -0.629487
      4 H1        -10.8470   -1.1120   -2.4550 hc        1 MOL      0.125891
      5 H2        -11.3490   -1.2870   -0.7560 hc        1 MOL      0.125891
      6 H3        -10.9700    0.3240   -1.4130 hc        1 MOL      0.125891
      7 N1         -8.9410   -0.4230    0.1620 n         1 MOL     -0.544249
      8 C3         -7.6100   -0.4830    0.7510 c3        1 MOL      0.155300
      9 C4         -7.1200   -1.9150    1.0930 c         1 MOL      0.605870
     10 O2         -7.1280   -2.3820    2.2240 o         1 MOL     -0.519347
     11 C5         -7.4960    0.4840    1.9100 c3        1 MOL     -0.291176
     12 C6         -8.1840    1.7910    1.6820 c         1 MOL      0.730288
     13 O3         -9.0480    2.2380    2.5000 o         1 MOL     -0.656029
     14 O4         -7.9350    2.5410    0.7450 o         1 MOL     -0.656029
     15 H4         -9.5810    0.2250    0.5970 hn        1 MOL      0.329797
     16 H5         -6.8790   -0.1250    0.0230 h1        1 MOL     -0.036549
     17 H6         -6.4500    0.6910    2.1510 hc        1 MOL      0.091688
     18 H7         -7.9520   -0.0290    2.7660 hc        1 MOL      0.091688
     19 N2         -6.5640   -2.6680    0.1390 n         1 MOL     -0.438316
     20 C7         -5.9360   -4.0030    0.3070 c3        1 MOL     -0.151086
     21 C8         -4.5720   -3.9630    1.1030 c         1 MOL      0.664915
     22 O5         -4.2160   -5.0180    1.6370 o         1 MOL     -0.558460
     23 C9         -5.7460   -4.6550   -1.0820 c3        1 MOL     -0.122305
     24 C10        -7.0100   -5.0560   -1.7950 c3        1 MOL      0.240273
     25 C11        -6.9340   -5.7370   -3.1440 c3        1 MOL     -0.167439
     26 C12        -8.3830   -5.6680   -3.7410 c3        1 MOL      0.090031
     27 N3         -8.3410   -5.7630   -5.2110 n4        1 MOL     -0.151173
     28 H8         -6.6210   -2.3420   -0.8160 hn        1 MOL      0.302240
     29 H9         -6.6800   -4.6160    0.8310 h1        1 MOL      0.114013
     30 H10        -5.1260   -5.5470   -0.9700 hc        1 MOL      0.060724
     31 H11        -5.1940   -3.9580   -1.6950 hc        1 MOL      0.060724
     32 H12        -7.5560   -4.1290   -1.9760 hc        1 MOL     -0.019180
     33 H13        -7.6180   -5.7640   -1.2300 hc        1 MOL     -0.019180
     34 H14        -6.6330   -6.7700   -2.9710 hc        1 MOL      0.045965
     35 H15        -6.1450   -5.2160   -3.6850 hc        1 MOL      0.045965
     36 H16        -8.8140   -4.7280   -3.3950 hx        1 MOL      0.064042
     37 H17        -9.1010   -6.4180   -3.4030 hx        1 MOL      0.064042
     38 H18        -9.2300   -5.6550   -5.6810 hn        1 MOL      0.207968
     39 H19        -7.6790   -5.1460   -5.6580 hn        1 MOL      0.207968
     40 H20        -8.0080   -6.5990   -5.6800 hn        1 MOL      0.207968
     41 N4         -3.7010   -2.9210    1.0820 n         1 MOL     -0.561945
     42 C13        -3.5810   -1.7590    0.1410 c3        1 MOL      0.464989
     43 C14        -3.6750   -0.4150    0.7860 c         1 MOL      0.053250
     44 O6         -3.6270   -0.2330    2.0230 o         1 MOL     -0.427935
     45 C15        -2.4500   -1.9550   -0.7800 c3        1 MOL     -0.021047
     46 C16        -1.0940   -1.9940   -0.2150 c         1 MOL      0.664281
     47 O7         -0.7690   -1.2160    0.6840 o         1 MOL     -0.692821
     48 O8         -0.3000   -2.8940   -0.6400 o         1 MOL     -0.692821
     49 H21        -2.9190   -2.8830    1.7110 hn        1 MOL      0.342273
     50 H22        -4.4000   -1.7720   -0.5800 h1        1 MOL     -0.072695
     51 H23        -2.4900   -1.1720   -1.5330 hc        1 MOL     -0.031202
     52 H24        -2.6980   -2.9350   -1.1960 hc        1 MOL     -0.031202
     53 N5         -3.9170    0.6160    0.0050 n         1 MOL     -0.125547
     54 C17        -4.2410    1.9530    0.5070 c3        1 MOL     -0.196909
     55 C18        -2.9860    2.7710    0.9170 c         1 MOL      0.752946
     56 O9         -1.8640    2.1830    0.9400 o         1 MOL     -0.704957
     57 H25        -3.8720    0.4970   -0.9960 hn        1 MOL      0.231981
     58 H26        -4.8770    1.7430    1.3670 h1        1 MOL      0.120317
     59 H27        -4.8130    2.3740   -0.3250 h1        1 MOL      0.120317
     60 N6         -3.1220    4.0730    1.2110 n         1 MOL     -0.589589
     61 C19        -2.0290    5.0870    1.4470 c3        1 MOL      0.275225
     62 C20        -2.4980    6.5180    1.1730 c         1 MOL      0.443798
     63 O10        -3.6710    6.8470    1.1360 o         1 MOL     -0.489071
     64 C21        -1.3870    4.9120    2.8850 c3        1 MOL     -0.129102
     65 C22        -0.9850    3.4680    3.3560 c         1 MOL      0.634585
     66 O11         0.1460    2.9950    2.9820 o         1 MOL     -0.671315
     67 O12        -1.7400    2.8240    4.1950 o         1 MOL     -0.671315
     68 H28        -4.0610    4.4160    1.1180 hn        1 MOL      0.318504
     69 H29        -1.2290    4.8390    0.7520 h1        1 MOL      0.024897
     70 H30        -2.0880    5.3750    3.5840 hc        1 MOL      0.033443
     71 H31        -0.5150    5.5510    3.0010 hc        1 MOL      0.033443
     72 N7         -1.5810    7.5170    0.9950 n         1 MOL     -0.483879
     73 C23        -0.1350    7.3890    0.9190 c3        1 MOL      0.013137
     74 C24         0.4810    6.5650   -0.2850 c         1 MOL      0.562707
     75 O13        -0.0460    6.5660   -1.3940 o         1 MOL     -0.519974
     76 H32        -1.9830    8.4530    0.9830 hn        1 MOL      0.335855
     77 H33         0.2520    6.8910    1.8030 h1        1 MOL      0.051176
     78 H34         0.2650    8.3990    0.9670 h1        1 MOL      0.051176
     79 N8          1.6210    5.9080   -0.0570 n         1 MOL     -0.629196
     80 C25         2.3090    4.9650   -0.9420 c3        1 MOL      0.285692
     81 C26         1.4630    3.6330   -1.0260 c         1 MOL      0.570487
     82 O14         1.0330    3.0300   -0.0440 o         1 MOL     -0.698119
     83 C27         3.7400    4.5920   -0.6300 c3        1 MOL      0.204876
     84 C28         4.5710    5.7820   -0.0900 c3        1 MOL     -0.392968
     85 O15         4.3610    4.2310   -1.8160 oh        1 MOL     -0.707103
     86 H35         2.0810    6.1660    0.8060 hn        1 MOL      0.303619
     87 H36         2.3040    5.4040   -1.9370 h1        1 MOL      0.060128
     88 H37         3.9010    3.7170    0.0100 h1        1 MOL      0.058395
     89 H38         5.2790    4.1400   -1.5630 ho        1 MOL      0.445368
     90 H39         4.5070    6.6190   -0.7850 hc        1 MOL      0.108862
     91 H40         4.1740    6.1970    0.8280 hc        1 MOL      0.108862
     92 H41         5.6140    5.4900    0.0330 hc        1 MOL      0.108862
     93 N9          1.3770    3.1910   -2.2700 n         1 MOL     -0.297309
     94 C29         0.6470    2.0880   -2.8260 c3        1 MOL      0.055172
     95 C30         1.2100    0.7400   -2.2400 c         1 MOL      0.293520
     96 O16         0.9360    0.4100   -1.0310 o         1 MOL     -0.473777
     97 C31        -0.8690    2.2660   -2.6370 c3        1 MOL      0.015457
     98 C32        -1.4730    3.5440   -3.2850 c3        1 MOL      0.017615
     99 C33        -1.6220    1.0580   -3.2250 c3        1 MOL     -0.204099
    100 C34        -1.4300    3.7990   -4.8070 c3        1 MOL     -0.284889
    101 H42         1.9180    3.7510   -2.9110 hn        1 MOL      0.243598
    102 H43         0.9060    2.1160   -3.8880 h1        1 MOL      0.057871
    103 H44        -0.9540    2.2450   -1.5520 hc        1 MOL      0.055428
    104 H45        -0.8120    4.3510   -2.9750 hc        1 MOL      0.021922
    105 H46        -2.4840    3.7360   -2.9060 hc        1 MOL      0.021922
    106 H47        -1.6280    1.1440   -4.3050 hc        1 MOL      0.051327
    107 H48        -1.1790    0.0950   -2.9660 hc        1 MOL      0.051327
    108 H49        -2.6250    0.9810   -2.8050 hc        1 MOL      0.051327
    109 H50        -1.7710    4.7760   -5.1460 hc        1 MOL      0.076929
    110 H51        -0.4300    3.6740   -5.2260 hc        1 MOL      0.076929
    111 H52        -2.2010    3.1290   -5.1790 hc        1 MOL      0.076929
    112 N10         1.9740    0.0320   -3.0270 n         1 MOL     -0.207827
    113 C35         2.4230   -1.3670   -2.7530 c3        1 MOL     -0.003153
    114 C36         3.9630   -1.5080   -2.9320 c         1 MOL      0.415989
    115 O17         4.5230   -2.6400   -3.0390 o         1 MOL     -0.555992
    116 C37         1.6660   -2.4370   -3.5390 c3        1 MOL      0.408214
    117 C38         1.9010   -2.2820   -5.0800 c3        1 MOL     -0.231654
    118 O18         0.2920   -2.2900   -3.1860 oh        1 MOL     -0.629225
    119 H53         2.2660    0.4570   -3.9010 hn        1 MOL      0.205428
    120 H54         2.2060   -1.5770   -1.7100 h1        1 MOL      0.051454
    121 H55         2.0140   -3.4070   -3.1790 h1        1 MOL      0.003367
    122 H56         0.2290   -2.5340   -2.2570 ho        1 MOL      0.365627
    123 H57         1.5310   -1.3040   -5.4100 hc        1 MOL      0.049991
    124 H58         2.9800   -2.3060   -5.1690 hc        1 MOL      0.049991
    125 H59         1.4440   -3.0260   -5.7240 hc        1 MOL      0.049991
    126 N11         4.7070   -0.4110   -2.8550 n         1 MOL     -0.158643
    127 C39         6.1980   -0.4100   -2.8610 c3        1 MOL     -0.085484
    128 C40         6.8040   -0.7600   -1.5330 c         1 MOL      0.530098
    129 O19         7.2960    0.1080   -0.8490 o         1 MOL     -0.508023
    130 C41         6.7410    0.8890   -3.4420 c3        1 MOL      0.277187
    131 C42         6.3370    0.9830   -4.9840 c3        1 MOL     -0.253672
    132 O20         6.1230    1.9960   -2.7520 oh        1 MOL     -0.540378
    133 H60         4.1720    0.4360   -2.8200 hn        1 MOL      0.166597
    134 H61         6.4570   -1.2480   -3.5090 h1        1 MOL      0.085054
    135 H62         7.8240    0.9780   -3.3140 h1        1 MOL      0.035001
    136 H63         6.7240    2.3240   -2.0880 ho        1 MOL      0.357320
    137 H64         6.6890    0.1300   -5.5660 hc        1 MOL      0.067753
    138 H65         5.2480    0.9280   -5.0620 hc        1 MOL      0.067753
    139 H66         6.6130    1.9460   -5.4220 hc        1 MOL      0.067753
    140 N12         6.6740   -2.0290   -1.1430 n         1 MOL     -0.668578
    141 C43         6.6740   -2.5750    0.1950 c3        1 MOL      0.313903
    142 C44         5.4290   -2.0860    1.0260 c         1 MOL      0.626665
    143 O21         4.8800   -1.0200    0.7190 o         1 MOL     -0.542679
    144 C45         8.0590   -2.2250    0.8640 c3        1 MOL     -0.759796
    145 C46         9.2220   -2.5760    0.0260 c3        1 MOL      0.329035
    146 C47        10.4960   -2.4910    0.7610 c3        1 MOL     -0.033162
    147 C48        11.6840   -2.9040   -0.2320 c3        1 MOL      0.008728
    148 N13        12.9110   -3.0590    0.5010 n4        1 MOL     -0.182075
    149 H67         6.1980   -2.5940   -1.8280 hn        1 MOL      0.342454
    150 H68         6.3970   -3.6330    0.1450 h1        1 MOL      0.031557
    151 H69         8.1300   -2.8090    1.7750 hc        1 MOL      0.221890
    152 H70         7.9470   -1.1560    1.0090 hc        1 MOL      0.221890
    153 H71         9.3570   -1.9940   -0.8940 hc        1 MOL     -0.016517
    154 H72         9.1300   -3.5860   -0.3880 hc        1 MOL     -0.016517
    155 H73        10.4490   -3.1330    1.6340 hc        1 MOL      0.028929
    156 H74        10.6970   -1.4610    1.0500 hc        1 MOL      0.028929
    157 H75        11.7150   -2.1140   -0.9930 hx        1 MOL      0.064996
    158 H76        11.3610   -3.8170   -0.7310 hx        1 MOL      0.064996
    159 H77        12.8890   -3.7350    1.2460 hn        1 MOL      0.214189
    160 H78        13.6150   -3.3550   -0.1630 hn        1 MOL      0.214189
    161 H79        13.1560   -2.1690    0.9140 hn        1 MOL      0.214189
    162 N14         4.9890   -2.8220    2.0210 n         1 MOL     -0.709307
    163 C49         3.8220   -2.3460    2.8380 c3        1 MOL      0.451492
    164 C50         2.5250   -2.3630    1.9840 c         1 MOL      0.341408
    165 O22         1.8300   -1.3670    1.9620 o         1 MOL     -0.564750
    166 C51         3.6840   -3.3030    3.9850 c3        1 MOL     -0.265883
    167 C52         2.9200   -2.7250    5.1310 c3        1 MOL     -0.070823
    168 C53         2.8770   -3.7440    6.3240 c         1 MOL      0.653406
    169 O23         3.4120   -3.3570    7.3960 o         1 MOL     -0.613155
    170 O24         2.3640   -4.9120    6.2210 o         1 MOL     -0.613155
    171 H80         5.5140   -3.6610    2.2330 hn        1 MOL      0.324826
    172 H81         4.0200   -1.3340    3.1890 h1        1 MOL      0.030712
    173 H82         4.6660   -3.6420    4.3290 hc        1 MOL      0.067277
    174 H83         3.1180   -4.1430    3.5790 hc        1 MOL      0.067277
    175 H84         1.9230   -2.4590    4.8110 hc        1 MOL      0.010995
    176 H85         3.2870   -1.7500    5.4570 hc        1 MOL      0.010995
    177 N15         2.0160   -3.3450    1.1810 n         1 MOL     -0.207550
    178 C54         2.4420   -4.7000    0.8470 c3        1 MOL     -0.166343
    179 H86         3.5270   -4.7670    0.9160 h1        1 MOL      0.069782
    180 H87         1.9900   -5.4060    1.5440 h1        1 MOL      0.069782
    181 H88         2.1270   -4.9410   -0.1680 h1        1 MOL      0.069782
    182 H89         1.1290   -3.1500    0.7450 hn        1 MOL      0.332596
    183 Ca1         0.4230    0.9470    1.4890 Ca        1 MOL      1.856813
    184 O25         3.1430    0.9960    0.9500 oh        1 MOL     -0.889461
    185 H90         3.9650    1.4980    0.9760 ho        1 MOL      0.426406
    186 H91         3.4020    0.1360    0.6150 ho        1 MOL      0.426406
    187 O26         1.8970    0.6470    3.7700 oh        1 MOL     -0.889461
    188 H92         1.3960    0.1830    4.4360 ho        1 MOL      0.426406
    189 H93         2.7500    0.7930    4.1740 ho        1 MOL      0.426406
    190 O27        -1.3480    0.4090    3.1900 oh        1 MOL     -0.889461
    191 H94        -1.4060    1.1510    3.7860 ho        1 MOL      0.426406
    192 H95        -2.2300    0.2850    2.8620 ho        1 MOL      0.426406
@<TRIPOS>BOND
     1    1    2 1   
     2    1    4 1   
     3    1    5 1   
     4    1    6 1   
     5    2    3 2   
     6    2    7 1   
     7    7    8 1   
     8    7   15 1   
     9    8    9 1   
    10    8   11 1   
    11    8   16 1   
    12    9   10 2   
    13    9   19 1   
    14   11   12 1   
    15   11   17 1   
    16   11   18 1   
    17   12   13 1   
    18   12   14 1   
    19   19   20 1   
    20   19   28 1   
    21   20   21 1   
    22   20   23 1   
    23   20   29 1   
    24   21   22 2   
    25   21   41 1   
    26   23   24 1   
    27   23   30 1   
    28   23   31 1   
    29   24   25 1   
    30   24   32 1   
    31   24   33 1   
    32   25   26 1   
    33   25   34 1   
    34   25   35 1   
    35   26   27 1   
    36   26   36 1   
    37   26   37 1   
    38   27   38 1   
    39   27   39 1   
    40   27   40 1   
    41   41   42 1   
    42   41   49 1   
    43   42   43 1   
    44   42   45 1   
    45   42   50 1   
    46   43   44 2   
    47   43   53 1   
    48   45   46 1   
    49   45   51 1   
    50   45   52 1   
    51   46   47 1   
    52   46   48 1   
    53   53   54 1   
    54   53   57 1   
    55   54   55 1   
    56   54   58 1   
    57   54   59 1   
    58   55   56 2   
    59   55   60 1   
    60   60   61 1   
    61   60   68 1   
    62   61   62 1   
    63   61   64 1   
    64   61   69 1   
    65   62   63 2   
    66   62   72 1   
    67   64   65 1   
    68   64   70 1   
    69   64   71 1   
    70   65   66 1   
    71   65   67 1   
    72   72   73 1   
    73   72   76 1   
    74   73   74 1   
    75   73   77 1   
    76   73   78 1   
    77   74   75 2   
    78   74   79 1   
    79   79   80 1   
    80   79   86 1   
    81   80   81 1   
    82   80   83 1   
    83   80   87 1   
    84   81   82 2   
    85   81   93 1   
    86   83   84 1   
    87   83   85 1   
    88   83   88 1   
    89   84   90 1   
    90   84   91 1   
    91   84   92 1   
    92   85   89 1   
    93   93   94 1   
    94   93  101 1   
    95   94   95 1   
    96   94   97 1   
    97   94  102 1   
    98   95   96 2   
    99   95  112 1   
   100   97   98 1   
   101   97   99 1   
   102   97  103 1   
   103   98  100 1   
   104   98  104 1   
   105   98  105 1   
   106   99  106 1   
   107   99  107 1   
   108   99  108 1   
   109  100  109 1   
   110  100  110 1   
   111  100  111 1   
   112  112  113 1   
   113  112  119 1   
   114  113  114 1   
   115  113  116 1   
   116  113  120 1   
   117  114  115 2   
   118  114  126 1   
   119  116  117 1   
   120  116  118 1   
   121  116  121 1   
   122  117  123 1   
   123  117  124 1   
   124  117  125 1   
   125  118  122 1   
   126  126  127 1   
   127  126  133 1   
   128  127  128 1   
   129  127  130 1   
   130  127  134 1   
   131  128  129 2   
   132  128  140 1   
   133  130  131 1   
   134  130  132 1   
   135  130  135 1   
   136  131  137 1   
   137  131  138 1   
   138  131  139 1   
   139  132  136 1   
   140  140  141 1   
   141  140  149 1   
   142  141  142 1   
   143  141  144 1   
   144  141  150 1   
   145  142  143 2   
   146  142  162 1   
   147  144  145 1   
   148  144  151 1   
   149  144  152 1   
   150  145  146 1   
   151  145  153 1   
   152  145  154 1   
   153  146  147 1   
   154  146  155 1   
   155  146  156 1   
   156  147  148 1   
   157  147  157 1   
   158  147  158 1   
   159  148  159 1   
   160  148  160 1   
   161  148  161 1   
   162  162  163 1   
   163  162  171 1   
   164  163  164 1   
   165  163  166 1   
   166  163  172 1   
   167  164  165 2   
   168  164  177 1   
   169  166  167 1   
   170  166  173 1   
   171  166  174 1   
   172  167  168 1   
   173  167  175 1   
   174  167  176 1   
   175  168  169 1   
   176  168  170 1   
   177  177  178 1   
   178  177  182 1   
   179  178  179 1   
   180  178  180 1   
   181  178  181 1   
   182  184  185 1   
   183  184  186 1   
   184  187  188 1   
   185  187  189 1   
   186  190  191 1   
   187  190  192 1   
@<TRIPOS>SUBSTRUCTURE
     1 MOL         1 TEMP              0 ****  ****    0 ROOT
