@<TRIPOS>MOLECULE
MOL
  175   173     1     0     0
SMALL
resp


@<TRIPOS>ATOM
      1 C1         -6.1060    8.0560    1.7880 c3        1 MOL     -0.364312
      2 C2         -6.8240    7.2580    0.7620 c         1 MOL      0.762625
      3 O1         -6.8640    7.5720   -0.4010 o         1 MOL     -0.615947
      4 H1         -6.6430    7.9980    2.7350 hc        1 MOL      0.078616
      5 H2         -5.0990    7.6590    1.9180 hc        1 MOL      0.078616
      6 H3         -6.0490    9.0950    1.4660 hc        1 MOL      0.078616
      7 N1         -7.4500    6.2580    1.3010 n         1 MOL     -0.697515
      8 C3         -8.4500    5.4800    0.6070 c3        1 MOL      0.622260
      9 C4         -7.7970    4.2440   -0.0250 c         1 MOL      0.461448
     10 O2         -8.2650    3.1330    0.2260 o         1 MOL     -0.514950
     11 C5         -9.5350    5.0970    1.5880 c3        1 MOL     -0.572388
     12 C6        -10.7880    4.4800    0.9470 c         1 MOL      0.846559
     13 O3        -11.6950    4.0910    1.7040 o         1 MOL     -0.755979
     14 O4        -11.0160    4.5440   -0.2720 o         1 MOL     -0.755979
     15 H4         -7.2970    6.0150    2.2720 hn        1 MOL      0.327376
     16 H5         -8.8810    6.0050   -0.2360 h1        1 MOL     -0.058988
     17 H6         -9.9310    6.0150    2.0350 hc        1 MOL      0.092389
     18 H7         -9.1110    4.3770    2.2830 hc        1 MOL      0.092389
     19 N2         -6.5920    4.4460   -0.6290 n         1 MOL     -0.692821
     20 C7         -5.8710    3.4160   -1.4140 c3        1 MOL      0.479728
     21 C8         -4.8460    2.5530   -0.5960 c         1 MOL      0.525924
     22 O5         -4.0910    3.0900    0.2480 o         1 MOL     -0.577001
     23 C9         -5.1810    4.1230   -2.5840 c3        1 MOL     -0.344704
     24 H8         -6.2510    5.3950   -0.5910 hn        1 MOL      0.304764
     25 H9         -6.6390    2.7640   -1.8470 h1        1 MOL     -0.003423
     26 H10        -4.8180    3.4370   -3.3450 hc        1 MOL      0.080046
     27 H11        -5.7640    4.9590   -2.9830 hc        1 MOL      0.080046
     28 H12        -4.2630    4.4440   -2.0810 hc        1 MOL      0.080046
     29 N3         -4.6330    1.2550   -0.7820 n         1 MOL     -0.414056
     30 C10        -5.1710    0.3060   -1.7300 c3        1 MOL     -0.299404
     31 C11        -5.6490   -0.9690   -0.9780 c         1 MOL      0.671498
     32 O6         -5.1120   -1.3120    0.0830 o         1 MOL     -0.568943
     33 C12        -4.2100    0.1110   -2.8650 c3        1 MOL     -0.080336
     34 C13        -2.8310   -0.3860   -2.3990 c         1 MOL      0.601278
     35 O7         -1.8740    0.3570   -2.0060 o         1 MOL     -0.701642
     36 O8         -2.7030   -1.6140   -2.3510 o         1 MOL     -0.701642
     37 H13        -3.8700    0.9470   -0.1960 hn        1 MOL      0.339173
     38 H14        -6.1250    0.6380   -2.1540 h1        1 MOL      0.105491
     39 H15        -4.1080    1.0710   -3.3730 hc        1 MOL      0.052770
     40 H16        -4.5370   -0.3580   -3.7930 hc        1 MOL      0.052770
     41 N4         -6.4610   -1.7680   -1.6340 n         1 MOL     -0.418965
     42 C14        -7.1640   -2.9440   -1.0700 c3        1 MOL     -0.014699
     43 C15        -6.9930   -4.2190   -1.9250 c         1 MOL      0.614588
     44 O9         -8.0170   -4.6160   -2.4220 o         1 MOL     -0.552734
     45 H17        -6.7900   -1.5130   -2.5510 hn        1 MOL      0.301202
     46 H18        -8.2130   -2.6680   -1.1520 h1        1 MOL      0.069931
     47 H19        -6.8340   -3.1230   -0.0430 h1        1 MOL      0.069931
     48 N5         -5.7830   -4.8350   -2.1600 n         1 MOL     -0.661432
     49 C16        -4.5760   -4.4970   -1.4010 c3        1 MOL      0.207563
     50 C17        -4.6600   -4.8240    0.1310 c         1 MOL      0.554892
     51 O10        -5.2990   -5.7790    0.5080 o         1 MOL     -0.571278
     52 C18        -3.5010   -5.2540   -2.1720 c3        1 MOL     -0.215957
     53 C19        -2.0950   -4.9240   -1.7370 c         1 MOL      0.486789
     54 N6         -1.1370   -5.7520   -2.1390 n         1 MOL     -0.622117
     55 O11        -1.8280   -3.9160   -1.0510 o         1 MOL     -0.510928
     56 H20        -5.7980   -5.6620   -2.7340 hn        1 MOL      0.349098
     57 H21        -4.3290   -3.4550   -1.5500 h1        1 MOL      0.027674
     58 H22        -3.5890   -4.9450   -3.2130 hc        1 MOL      0.078428
     59 H23        -3.7830   -6.3090   -2.1910 hc        1 MOL      0.078428
     60 H24        -1.5060   -6.5460   -2.6460 hn        1 MOL      0.320481
     61 H25        -0.2370   -5.6400   -1.6960 hn        1 MOL      0.320481
     62 N7         -3.8910   -4.1410    0.9640 n         1 MOL     -0.284355
     63 C20        -3.8380   -4.3970    2.4300 c3        1 MOL     -0.298401
     64 C21        -2.3800   -4.5590    2.8490 c         1 MOL      0.459965
     65 O12        -1.9660   -4.4950    4.0160 o         1 MOL     -0.582733
     66 H26        -3.2800   -3.4350    0.5850 hn        1 MOL      0.305290
     67 H27        -4.3780   -5.3120    2.6900 h1        1 MOL      0.163848
     68 H28        -4.1840   -3.5180    2.9850 h1        1 MOL      0.163848
     69 N8         -1.3330   -4.7410    2.0150 n         1 MOL     -0.101227
     70 C22         0.0740   -4.7520    2.3660 c3        1 MOL      0.016923
     71 C23         0.8320   -3.3860    2.1210 c         1 MOL      0.405350
     72 O13         0.5150   -2.6990    1.1170 o         1 MOL     -0.573118
     73 C24         0.7750   -5.9130    1.6180 c3        1 MOL      0.327142
     74 C25         0.4250   -7.2420    2.2220 c3        1 MOL     -0.345674
     75 O14         0.4430   -5.9040    0.2380 oh        1 MOL     -0.644833
     76 H29        -1.5550   -5.0650    1.0880 hn        1 MOL      0.164528
     77 H30         0.2310   -4.8940    3.4340 h1        1 MOL      0.027326
     78 H31         1.8350   -5.7750    1.8020 h1        1 MOL      0.016873
     79 H32         1.1260   -5.4150   -0.2320 ho        1 MOL      0.463589
     80 H33         0.8710   -7.4040    3.1980 hc        1 MOL      0.079699
     81 H34        -0.6560   -7.3050    2.2260 hc        1 MOL      0.079699
     82 H35         0.9730   -8.0040    1.6610 hc        1 MOL      0.079699
     83 N9          1.8280   -3.1100    2.9220 n         1 MOL     -0.357391
     84 C26         2.8380   -2.0350    2.6430 c3        1 MOL      0.141356
     85 C27         3.8180   -2.6890    1.6430 c         1 MOL      0.217958
     86 O15         4.5750   -3.6360    1.9870 o         1 MOL     -0.548355
     87 C28         3.4890   -1.4540    3.9230 c3        1 MOL      0.104767
     88 C29         4.4790   -0.2940    3.6710 c3        1 MOL      0.067266
     89 C30         2.4270   -0.9570    4.8630 c3        1 MOL     -0.357526
     90 C31         5.9210   -0.6900    3.1990 c3        1 MOL     -0.064703
     91 H36         2.1520   -3.8860    3.4690 hn        1 MOL      0.257915
     92 H37         2.3550   -1.1800    2.1750 h1        1 MOL      0.105774
     93 H38         4.0420   -2.2370    4.4380 hc        1 MOL      0.010622
     94 H39         4.6220    0.2800    4.5840 hc        1 MOL     -0.017332
     95 H40         4.1000    0.3380    2.8620 hc        1 MOL     -0.017332
     96 H41         2.9310   -0.4900    5.7080 hc        1 MOL      0.085338
     97 H42         1.8230   -0.2280    4.3200 hc        1 MOL      0.085338
     98 H43         1.8320   -1.8180    5.1720 hc        1 MOL      0.085338
     99 H44         6.4930    0.2010    2.9500 hc        1 MOL     -0.000428
    100 H45         6.3840   -1.2090    4.0340 hc        1 MOL     -0.000428
    101 H46         5.8840   -1.3740    2.3440 hc        1 MOL     -0.000428
    102 N10         3.8770   -2.1580    0.4600 n         1 MOL      0.059973
    103 C32         4.6330   -2.7270   -0.7090 c3        1 MOL      0.046168
    104 C33         5.7800   -1.7960   -1.1770 c         1 MOL      0.471485
    105 O16         6.3470   -1.9790   -2.2670 o         1 MOL     -0.538228
    106 C34         3.6540   -3.0410   -1.8410 c3        1 MOL     -0.203185
    107 C35         2.4050   -3.8000   -1.4180 c         1 MOL      0.814275
    108 O17         2.5110   -4.9870   -1.1250 o         1 MOL     -0.734128
    109 O18         1.2850   -3.2970   -1.5700 o         1 MOL     -0.734128
    110 H47         3.2880   -1.3860    0.1800 hn        1 MOL      0.004167
    111 H48         5.0810   -3.6430   -0.3330 h1        1 MOL      0.061513
    112 H49         4.1890   -3.6030   -2.6060 hc        1 MOL      0.047310
    113 H50         3.3880   -2.0820   -2.2900 hc        1 MOL      0.047310
    114 N11         6.0030   -0.6440   -0.4800 n         1 MOL     -0.359260
    115 C36         6.9500    0.3670   -0.8810 c3        1 MOL      0.125259
    116 C37         6.4740    1.8110   -0.4220 c         1 MOL      0.251800
    117 O19         6.2380    2.0200    0.7750 o         1 MOL     -0.450858
    118 C38         8.4010    0.0400   -0.5570 c3        1 MOL     -0.285313
    119 C39         9.3670    1.1180   -0.9930 ca        1 MOL      0.103818
    120 C40         9.7870    2.0560   -0.0450 ca        1 MOL     -0.163029
    121 C41         9.7420    1.3240   -2.3410 ca        1 MOL     -0.163029
    122 C42        10.5970    3.0960   -0.4520 ca        1 MOL     -0.079704
    123 C43        10.6640    2.3050   -2.7310 ca        1 MOL     -0.079704
    124 C44        11.0830    3.2170   -1.7560 ca        1 MOL     -0.155601
    125 H51         5.5080   -0.5440    0.3920 hn        1 MOL      0.233379
    126 H52         6.7220    0.3520   -1.9460 h1        1 MOL      0.057082
    127 H53         8.7410   -0.8890   -1.0130 hc        1 MOL      0.122484
    128 H54         8.5830   -0.1530    0.5000 hc        1 MOL      0.122484
    129 H55         9.6310    1.9590    1.0210 ha        1 MOL      0.114215
    130 H56         9.4410    0.5610   -3.0390 ha        1 MOL      0.114215
    131 H57        11.1230    3.7580    0.2220 ha        1 MOL      0.096992
    132 H58        11.0360    2.2990   -3.7390 ha        1 MOL      0.096992
    133 H59        11.8090    3.9570   -2.0660 ha        1 MOL      0.107418
    134 N12         6.4010    2.8200   -1.3270 n         1 MOL      0.108690
    135 C45         6.4840    4.2800   -1.0050 c3        1 MOL      0.173560
    136 C46         5.2380    4.7850   -0.2720 c         1 MOL      0.323111
    137 O20         5.2270    5.8880    0.2020 o         1 MOL     -0.493811
    138 C47         6.7800    5.0130   -2.3410 c3        1 MOL     -0.249852
    139 C48         6.1830    4.0100   -3.3440 c3        1 MOL     -0.025271
    140 C49         6.5160    2.6710   -2.7950 c3        1 MOL     -0.179393
    141 H60         7.3370    4.5060   -0.3550 h1        1 MOL      0.017776
    142 H61         6.2700    5.9760   -2.2490 hc        1 MOL      0.091379
    143 H62         7.8620    5.1010   -2.3730 hc        1 MOL      0.091379
    144 H63         5.0950    4.0500   -3.4380 hc        1 MOL      0.049348
    145 H64         6.4390    4.2330   -4.3880 hc        1 MOL      0.049348
    146 H65         5.8680    1.9230   -3.2470 h1        1 MOL      0.080411
    147 H66         7.5600    2.4550   -3.0370 h1        1 MOL      0.080411
    148 N13         4.2230    3.9280   -0.1470 n         1 MOL     -0.180812
    149 C50         3.0160    4.1470    0.6580 c3        1 MOL     -0.175578
    150 C51         3.2060    4.2280    2.1870 c         1 MOL      0.537279
    151 O21         2.3940    4.7710    2.8910 o         1 MOL     -0.523370
    152 C52         1.9490    3.0610    0.2610 c3        1 MOL     -0.080579
    153 C53         2.1580    1.6600    0.9110 c3        1 MOL      0.002394
    154 C54         1.2510    0.6470    0.3100 c         1 MOL      0.678200
    155 O22         1.8200   -0.3030   -0.2880 o         1 MOL     -0.701073
    156 O23         0.0140    0.5970    0.3490 o         1 MOL     -0.701073
    157 H67         4.2160    2.9810   -0.4920 hn        1 MOL      0.113844
    158 H68         2.6160    5.1020    0.2950 h1        1 MOL      0.139267
    159 H69         1.9080    2.9790   -0.8220 hc        1 MOL      0.060025
    160 H70         0.9510    3.3600    0.6090 hc        1 MOL      0.060025
    161 H71         1.8160    1.6470    1.9380 hc        1 MOL      0.004100
    162 H72         3.2160    1.4120    0.8820 hc        1 MOL      0.004100
    163 N14         4.3700    3.7890    2.6930 n         1 MOL     -0.249532
    164 C55         4.8740    4.1530    4.0630 c3        1 MOL     -0.249414
    165 H73         4.0280    4.3760    4.7130 h1        1 MOL      0.109521
    166 H74         5.4380    3.3180    4.4770 h1        1 MOL      0.109521
    167 H75         5.5190    5.0290    3.9940 h1        1 MOL      0.109521
    168 H76         4.9570    3.1950    2.1380 hn        1 MOL      0.224832
    169 Ca1        -0.4620   -1.5030   -0.9950 Ca        1 MOL      1.772352
    170 O24         0.8860   -1.0410   -3.2190 oh        1 MOL     -0.849646
    171 H77         1.2120   -1.6100   -3.9150 ho        1 MOL      0.409882
    172 H78         1.3420   -0.2060   -3.3690 ho        1 MOL      0.409882
    173 O25        -2.2590   -1.3130    0.9380 oh        1 MOL     -0.849646
    174 H79        -1.8670   -0.7040    1.5610 ho        1 MOL      0.409882
    175 H80        -3.1120   -1.5190    1.3020 ho        1 MOL      0.409882
@<TRIPOS>BOND
     1    1    2 1   
     2    1    4 1   
     3    1    5 1   
     4    1    6 1   
     5    2    3 2   
     6    2    7 1   
     7    7    8 1   
     8    7   15 1   
     9    8    9 1   
    10    8   11 1   
    11    8   16 1   
    12    9   10 2   
    13    9   19 1   
    14   11   12 1   
    15   11   17 1   
    16   11   18 1   
    17   12   13 1   
    18   12   14 1   
    19   19   20 1   
    20   19   24 1   
    21   20   21 1   
    22   20   23 1   
    23   20   25 1   
    24   21   22 2   
    25   21   29 1   
    26   23   26 1   
    27   23   27 1   
    28   23   28 1   
    29   29   30 1   
    30   29   37 1   
    31   30   31 1   
    32   30   33 1   
    33   30   38 1   
    34   31   32 2   
    35   31   41 1   
    36   33   34 1   
    37   33   39 1   
    38   33   40 1   
    39   34   35 1   
    40   34   36 1   
    41   41   42 1   
    42   41   45 1   
    43   42   43 1   
    44   42   46 1   
    45   42   47 1   
    46   43   44 2   
    47   43   48 1   
    48   48   49 1   
    49   48   56 1   
    50   49   50 1   
    51   49   52 1   
    52   49   57 1   
    53   50   51 2   
    54   50   62 1   
    55   52   53 1   
    56   52   58 1   
    57   52   59 1   
    58   53   54 1   
    59   53   55 2   
    60   54   60 1   
    61   54   61 1   
    62   62   63 1   
    63   62   66 1   
    64   63   64 1   
    65   63   67 1   
    66   63   68 1   
    67   64   65 2   
    68   64   69 1   
    69   69   70 1   
    70   69   76 1   
    71   70   71 1   
    72   70   73 1   
    73   70   77 1   
    74   71   72 2   
    75   71   83 1   
    76   73   74 1   
    77   73   75 1   
    78   73   78 1   
    79   74   80 1   
    80   74   81 1   
    81   74   82 1   
    82   75   79 1   
    83   83   84 1   
    84   83   91 1   
    85   84   85 1   
    86   84   87 1   
    87   84   92 1   
    88   85   86 2   
    89   85  102 1   
    90   87   88 1   
    91   87   89 1   
    92   87   93 1   
    93   88   90 1   
    94   88   94 1   
    95   88   95 1   
    96   89   96 1   
    97   89   97 1   
    98   89   98 1   
    99   90   99 1   
   100   90  100 1   
   101   90  101 1   
   102  102  103 1   
   103  102  110 1   
   104  103  104 1   
   105  103  106 1   
   106  103  111 1   
   107  104  105 2   
   108  104  114 1   
   109  106  107 1   
   110  106  112 1   
   111  106  113 1   
   112  107  108 1   
   113  107  109 1   
   114  114  115 1   
   115  114  125 1   
   116  115  116 1   
   117  115  118 1   
   118  115  126 1   
   119  116  117 2   
   120  116  134 1   
   121  118  119 1   
   122  118  127 1   
   123  118  128 1   
   124  119  120 ar  
   125  119  121 ar  
   126  120  122 ar  
   127  120  129 1   
   128  121  123 ar  
   129  121  130 1   
   130  122  124 ar  
   131  122  131 1   
   132  123  124 ar  
   133  123  132 1   
   134  124  133 1   
   135  134  135 1   
   136  134  140 1   
   137  135  136 1   
   138  135  138 1   
   139  135  141 1   
   140  136  137 2   
   141  136  148 1   
   142  138  139 1   
   143  138  142 1   
   144  138  143 1   
   145  139  140 1   
   146  139  144 1   
   147  139  145 1   
   148  140  146 1   
   149  140  147 1   
   150  148  149 1   
   151  148  157 1   
   152  149  150 1   
   153  149  152 1   
   154  149  158 1   
   155  150  151 2   
   156  150  163 1   
   157  152  153 1   
   158  152  159 1   
   159  152  160 1   
   160  153  154 1   
   161  153  161 1   
   162  153  162 1   
   163  154  155 1   
   164  154  156 1   
   165  163  164 1   
   166  163  168 1   
   167  164  165 1   
   168  164  166 1   
   169  164  167 1   
   170  170  171 1   
   171  170  172 1   
   172  173  174 1   
   173  173  175 1   
@<TRIPOS>SUBSTRUCTURE
     1 MOL         1 TEMP              0 ****  ****    0 ROOT
