@<TRIPOS>MOLECULE
MOL
  191   184     1     0     0
SMALL
resp


@<TRIPOS>ATOM
      1 C1          1.2720    0.8430    3.2690 c3        1 MOL     -0.477649
      2 C2          2.4370    0.7450    2.3420 c         1 MOL      0.776486
      3 O1          2.4790    1.5280    1.4020 o         1 MOL     -0.619696
      4 H1          1.4690    1.6080    4.0210 hc        1 MOL      0.117188
      5 H2          0.3790    1.1130    2.7050 hc        1 MOL      0.117188
      6 H3          1.1160   -0.1180    3.7600 hc        1 MOL      0.117188
      7 N1          3.2710   -0.2270    2.5330 n         1 MOL     -0.551606
      8 C3          4.6240   -0.3000    1.8070 c3        1 MOL     -0.073999
      9 C4          5.0210   -1.7290    1.4400 c         1 MOL      0.358951
     10 O2          6.0460   -1.9170    0.8200 o         1 MOL     -0.430743
     11 C5          5.7680    0.3900    2.6090 c3        1 MOL     -0.070440
     12 C6          5.9710   -0.1020    4.0870 c         1 MOL      0.637189
     13 O3          5.4080   -1.1590    4.4520 o         1 MOL     -0.670992
     14 O4          6.6930    0.4970    4.8780 o         1 MOL     -0.670992
     15 H4          3.1350   -0.8920    3.2840 hn        1 MOL      0.294414
     16 H5          4.5460    0.2840    0.8950 h1        1 MOL      0.159408
     17 H6          5.6210    1.4670    2.6710 hc        1 MOL      0.057205
     18 H7          6.7110    0.2600    2.0750 hc        1 MOL      0.057205
     19 N2          4.1810   -2.7470    1.7080 n         1 MOL     -0.163418
     20 C7          4.4640   -4.2430    1.3980 c3        1 MOL     -0.046007
     21 C8          4.7880   -4.5660   -0.0870 c         1 MOL      0.469715
     22 O5          5.7930   -5.1640   -0.3630 o         1 MOL     -0.489196
     23 C9          5.5520   -4.7760    2.5050 c3        1 MOL     -0.245267
     24 C10         5.1700   -4.7070    4.0110 c3        1 MOL      0.180627
     25 C11         6.3560   -5.1640    4.9430 c3        1 MOL     -0.377529
     26 C12         7.4730   -4.0960    5.0430 c3        1 MOL      0.084672
     27 N3          7.0570   -2.9180    5.7730 n4        1 MOL     -0.399538
     28 H8          3.2480   -2.5320    2.0230 hn        1 MOL      0.185024
     29 H9          3.5130   -4.7110    1.6640 h1        1 MOL      0.056079
     30 H10         6.4790   -4.2260    2.3600 hc        1 MOL      0.119454
     31 H11         5.6970   -5.8490    2.3640 hc        1 MOL      0.119454
     32 H12         4.4090   -5.4870    4.1160 hc        1 MOL     -0.025930
     33 H13         4.8800   -3.6920    4.2830 hc        1 MOL     -0.025930
     34 H14         6.7160   -6.1070    4.5310 hc        1 MOL      0.124097
     35 H15         5.8820   -5.2880    5.9130 hc        1 MOL      0.124097
     36 H16         7.9960   -3.9500    4.1060 hx        1 MOL      0.084568
     37 H17         8.3210   -4.4990    5.5990 hx        1 MOL      0.084568
     38 H18         6.3730   -2.4240    5.2250 hn        1 MOL      0.324969
     39 H19         6.5190   -3.0120    6.6230 hn        1 MOL      0.324969
     40 H20         7.8060   -2.2420    5.8370 hn        1 MOL      0.324969
     41 N4          4.0430   -3.8530   -0.9830 n         1 MOL     -0.299882
     42 C13         4.1800   -3.7620   -2.4780 c3        1 MOL      0.001725
     43 C14         4.4950   -2.3540   -2.9560 c         1 MOL      0.512667
     44 O6          4.9680   -2.1330   -4.0750 o         1 MOL     -0.537308
     45 C15         3.0860   -4.4850   -3.3080 c3        1 MOL     -0.230643
     46 C16         1.6840   -4.4780   -2.6460 c         1 MOL      0.650888
     47 O7          0.9310   -5.4360   -2.4090 o         1 MOL     -0.704098
     48 O8          1.2820   -3.3110   -2.2490 o         1 MOL     -0.704098
     49 H21         3.2920   -3.3940   -0.4900 hn        1 MOL      0.150254
     50 H22         5.0880   -4.3220   -2.7120 h1        1 MOL      0.148172
     51 H23         3.3680   -5.4960   -3.5950 hc        1 MOL      0.082144
     52 H24         3.0750   -4.0220   -4.2940 hc        1 MOL      0.082144
     53 N5          4.4670   -1.3450   -2.0740 n         1 MOL     -0.419569
     54 C17         5.1040   -0.0530   -2.2510 c3        1 MOL     -0.031564
     55 C18         6.6450   -0.1310   -2.2950 c         1 MOL      0.605708
     56 O9          7.3090   -1.1640   -2.4090 o         1 MOL     -0.491359
     57 H25         4.0500   -1.5600   -1.1790 hn        1 MOL      0.248023
     58 H26         4.7970    0.5500   -1.4030 h1        1 MOL      0.098682
     59 H27         4.6470    0.2710   -3.1870 h1        1 MOL      0.098682
     60 N6          7.2810    1.0230   -2.2240 n         1 MOL     -0.670512
     61 C19         6.7540    2.4130   -2.0990 c3        1 MOL      0.678129
     62 C20         6.4770    2.7540   -0.6480 c         1 MOL      0.262186
     63 O10         7.2720    2.5290    0.2780 o         1 MOL     -0.515435
     64 C21         7.6260    3.4040   -2.7880 c3        1 MOL     -0.411571
     65 C22         7.7380    3.3680   -4.2880 c         1 MOL      0.764610
     66 N7          8.9000    3.7760   -4.8360 n         1 MOL     -0.838897
     67 O11         6.8540    3.0730   -5.0150 o         1 MOL     -0.545150
     68 H28         8.2680    0.8790   -2.0460 hn        1 MOL      0.312127
     69 H29         5.8070    2.4050   -2.6260 h1        1 MOL     -0.127469
     70 H30         8.6530    3.2570   -2.4300 hc        1 MOL      0.097215
     71 H31         7.3020    4.4000   -2.4890 hc        1 MOL      0.097215
     72 H32         9.7100    4.1690   -4.3940 hn        1 MOL      0.361482
     73 H33         8.9690    3.8460   -5.8440 hn        1 MOL      0.361482
     74 N8          5.3370    3.3750   -0.2930 n         1 MOL     -0.277451
     75 C23         4.2080    3.7350   -1.1660 c3        1 MOL     -0.271697
     76 C24         3.1070    4.6540   -0.6100 c         1 MOL      0.694290
     77 O12         3.3910    5.7370   -0.0590 o         1 MOL     -0.585049
     78 H34         5.2490    3.5560    0.7000 hn        1 MOL      0.309496
     79 H35         3.6380    2.8620   -1.4840 h1        1 MOL      0.103325
     80 H36         4.5730    4.3630   -1.9700 h1        1 MOL      0.103325
     81 N9          1.8430    4.3000   -0.7180 n         1 MOL     -0.475757
     82 C25         0.6980    4.9610   -0.1900 c3        1 MOL      0.112866
     83 C26        -0.5000    3.9690    0.1430 c         1 MOL      0.560345
     84 O13        -0.4930    2.7560   -0.0930 o         1 MOL     -0.516217
     85 C27         0.2510    6.0030   -1.2440 c3        1 MOL     -0.164298
     86 C28        -0.4280    7.2250   -0.6300 ca        1 MOL      0.041198
     87 C29        -1.7930    7.5620   -0.9850 ca        1 MOL     -0.137072
     88 C30         0.3240    8.0420    0.2070 ca        1 MOL     -0.137072
     89 C31        -2.4020    8.5630   -0.3040 ca        1 MOL     -0.238610
     90 C32        -0.3290    9.1450    0.7770 ca        1 MOL     -0.238610
     91 C33        -1.6920    9.3920    0.5590 ca        1 MOL      0.318608
     92 O14        -2.4210   10.3410    1.2250 oh        1 MOL     -0.490512
     93 H37         1.6560    3.4070   -1.1590 hn        1 MOL      0.274971
     94 H38         0.9790    5.4200    0.7630 h1        1 MOL      0.065763
     95 H39        -0.2340    5.4330   -2.0270 hc        1 MOL      0.078525
     96 H40         1.1340    6.3330   -1.7900 hc        1 MOL      0.078525
     97 H41        -2.3980    6.9750   -1.6620 ha        1 MOL      0.148704
     98 H42         1.3830    7.8310    0.3090 ha        1 MOL      0.148704
     99 H43        -3.4870    8.6750   -0.2760 ha        1 MOL      0.124521
    100 H44         0.2250    9.8580    1.3780 ha        1 MOL      0.124521
    101 H45        -1.9230   10.6920    1.9660 ho        1 MOL      0.367094
    102 N10        -1.5370    4.5670    0.7050 n         1 MOL     -0.453581
    103 C34        -2.7440    3.8680    1.2240 c3        1 MOL      0.028417
    104 C35        -3.8600    3.9380    0.1440 c         1 MOL      0.537100
    105 O15        -3.8240    4.8420   -0.7890 o         1 MOL     -0.537167
    106 C36        -3.1110    4.5770    2.5150 c3        1 MOL      0.211783
    107 C37        -3.2820    6.1020    2.4820 c3        1 MOL      0.006044
    108 C38        -4.3820    3.9080    3.1240 c3        1 MOL     -0.302271
    109 C39        -3.5670    6.9270    3.7790 c3        1 MOL     -0.306007
    110 H46        -1.4210    5.5500    0.8980 hn        1 MOL      0.161652
    111 H47        -2.5280    2.8040    1.3360 h1        1 MOL      0.082076
    112 H48        -2.2790    4.2910    3.1640 hc        1 MOL     -0.000633
    113 H49        -4.0840    6.3920    1.7990 hc        1 MOL      0.054339
    114 H50        -2.3730    6.5800    2.1210 hc        1 MOL      0.054339
    115 H51        -4.3940    2.8430    2.9150 hc        1 MOL      0.069049
    116 H52        -4.4400    4.1920    4.1740 hc        1 MOL      0.069049
    117 H53        -5.2400    4.3460    2.6080 hc        1 MOL      0.069049
    118 H54        -3.3670    7.9780    3.5740 hc        1 MOL      0.078099
    119 H55        -4.5420    6.7450    4.2170 hc        1 MOL      0.078099
    120 H56        -2.8890    6.5970    4.5730 hc        1 MOL      0.078099
    121 N11        -4.7610    2.9520    0.0300 n         1 MOL     -0.467142
    122 C40        -5.7410    2.8710   -1.0690 c3        1 MOL      0.060716
    123 C41        -5.9310    1.4180   -1.3480 c         1 MOL      0.758570
    124 O16        -5.6020    0.6430   -0.4790 o         1 MOL     -0.501153
    125 C42        -7.0330    3.5920   -0.6210 c3        1 MOL      0.079035
    126 O17        -7.5010    3.2720    0.6710 oh        1 MOL     -0.580300
    127 H57        -4.8140    2.2690    0.7710 hn        1 MOL      0.288641
    128 H58        -5.3630    3.3850   -1.9550 h1        1 MOL      0.067475
    129 H59        -7.7640    3.4540   -1.4180 h1        1 MOL      0.030868
    130 H60        -6.7370    4.6410   -0.6160 h1        1 MOL      0.030868
    131 H61        -8.2000    3.9020    0.8910 ho        1 MOL      0.414496
    132 N12        -6.3440    1.0540   -2.5610 n         1 MOL     -0.758099
    133 C43        -6.1470   -0.2360   -3.1480 c3        1 MOL      0.208904
    134 C44        -6.8220   -1.3800   -2.3360 c         1 MOL      0.466240
    135 O18        -6.1790   -2.4350   -2.2640 o         1 MOL     -0.474795
    136 C45        -4.6130   -0.4850   -3.4190 c3        1 MOL     -0.233946
    137 H62        -6.5490    1.7660   -3.2590 hn        1 MOL      0.345377
    138 H63        -6.6650   -0.3330   -4.1030 h1        1 MOL      0.063679
    139 H64        -4.2350    0.2970   -4.0760 hc        1 MOL      0.067129
    140 H65        -4.0470   -0.2470   -2.5220 hc        1 MOL      0.067129
    141 H66        -4.4210   -1.4240   -3.9350 hc        1 MOL      0.067129
    142 N13        -8.0810   -1.2240   -1.9410 n         1 MOL     -0.502079
    143 C46        -8.8860   -2.3690   -1.4150 c3        1 MOL      0.098445
    144 C47        -8.0760   -3.2040   -0.2950 c         1 MOL      0.472986
    145 O19        -8.1470   -4.4180   -0.3160 o         1 MOL     -0.471715
    146 C48        -9.4210   -3.1530   -2.5820 c3        1 MOL     -0.165330
    147 H67        -8.4980   -0.3060   -1.9820 hn        1 MOL      0.322354
    148 H68        -9.8390   -2.0030   -1.0310 h1        1 MOL      0.070654
    149 H69        -8.6730   -3.4780   -3.3020 hc        1 MOL      0.056573
    150 H70        -9.7770   -4.1020   -2.1870 hc        1 MOL      0.056573
    151 H71       -10.2350   -2.6440   -3.1030 hc        1 MOL      0.056573
    152 N14        -7.3220   -2.5370    0.5420 n         1 MOL     -0.486560
    153 C49        -6.4290   -3.0680    1.5260 c3        1 MOL      0.137420
    154 C50        -6.9660   -2.9900    2.9970 c         1 MOL      0.436077
    155 O20        -7.0490   -3.9740    3.7060 o         1 MOL     -0.501270
    156 C51        -5.0910   -2.3770    1.4170 c3        1 MOL      0.289527
    157 C52        -3.8340   -2.9900    1.9700 c3        1 MOL     -0.497924
    158 C53        -3.5850   -4.3870    1.3880 c         1 MOL      0.734678
    159 O21        -3.2040   -4.4880    0.2100 o         1 MOL     -0.689263
    160 O22        -3.8330   -5.4190    2.0870 o         1 MOL     -0.689263
    161 H72        -7.2300   -1.5380    0.4360 hn        1 MOL      0.218781
    162 H73        -6.2350   -4.1200    1.2970 h1        1 MOL      0.114984
    163 H74        -5.1510   -1.3540    1.7900 hc        1 MOL     -0.074563
    164 H75        -4.9390   -2.3050    0.3400 hc        1 MOL     -0.074563
    165 H76        -4.0640   -3.0820    3.0370 hc        1 MOL      0.095962
    166 H77        -3.0170   -2.3310    1.7100 hc        1 MOL      0.095962
    167 N15        -7.5320   -1.8590    3.3260 n         1 MOL     -0.303019
    168 C54        -8.3090   -1.5040    4.5330 c3        1 MOL     -0.078862
    169 H78        -9.2060   -0.9590    4.2390 h1        1 MOL      0.069794
    170 H79        -8.5950   -2.4130    5.0620 h1        1 MOL      0.069794
    171 H80        -7.7020   -0.8780    5.1860 h1        1 MOL      0.069794
    172 H81        -7.5560   -1.1340    2.6220 hn        1 MOL      0.224189
    173 Ca1        -1.2150   -4.4460   -1.3930 Ca        1 MOL      1.675334
    174 O23        -3.7540   -4.0010   -2.6960 oh        1 MOL     -0.782259
    175 H82        -4.4950   -3.4250   -2.5400 ho        1 MOL      0.392833
    176 H83        -4.0530   -4.6010   -3.3720 ho        1 MOL      0.392833
    177 O24        -0.9590   -4.1650   -4.2210 oh        1 MOL     -0.782259
    178 H84        -0.3880   -3.8990   -4.9450 ho        1 MOL      0.392833
    179 H85        -1.7010   -4.5910   -4.6410 ho        1 MOL      0.392833
    180 O25        -0.1950   -6.5390    0.0800 oh        1 MOL     -0.782259
    181 H86        -0.2060   -7.4390   -0.2430 ho        1 MOL      0.392833
    182 H87         0.6550   -6.4600    0.5300 ho        1 MOL      0.392833
    183 O26        -2.7570   -6.7340   -2.2520 oh        1 MOL     -0.782259
    184 H88        -2.9930   -7.1760   -3.0620 ho        1 MOL      0.392833
    185 H89        -3.5720   -6.6760   -1.7510 ho        1 MOL      0.392833
    186 O27        -1.3590   -2.0140   -2.2860 oh        1 MOL     -0.782259
    187 H90        -1.6510   -2.0470   -3.1920 ho        1 MOL      0.392833
    188 H91        -1.6160   -1.1500   -1.9690 ho        1 MOL      0.392833
    189 O28        -0.0180   -3.7480    0.8860 oh        1 MOL     -0.782259
    190 H92        -0.2180   -4.1420    1.7340 ho        1 MOL      0.392833
    191 H93         0.5170   -2.9880    1.0930 ho        1 MOL      0.392833
@<TRIPOS>BOND
     1    1    2 1   
     2    1    4 1   
     3    1    5 1   
     4    1    6 1   
     5    2    3 2   
     6    2    7 1   
     7    7    8 1   
     8    7   15 1   
     9    8    9 1   
    10    8   11 1   
    11    8   16 1   
    12    9   10 2   
    13    9   19 1   
    14   11   12 1   
    15   11   17 1   
    16   11   18 1   
    17   12   13 1   
    18   12   14 1   
    19   19   20 1   
    20   19   28 1   
    21   20   21 1   
    22   20   23 1   
    23   20   29 1   
    24   21   22 2   
    25   21   41 1   
    26   23   24 1   
    27   23   30 1   
    28   23   31 1   
    29   24   25 1   
    30   24   32 1   
    31   24   33 1   
    32   25   26 1   
    33   25   34 1   
    34   25   35 1   
    35   26   27 1   
    36   26   36 1   
    37   26   37 1   
    38   27   38 1   
    39   27   39 1   
    40   27   40 1   
    41   41   42 1   
    42   41   49 1   
    43   42   43 1   
    44   42   45 1   
    45   42   50 1   
    46   43   44 2   
    47   43   53 1   
    48   45   46 1   
    49   45   51 1   
    50   45   52 1   
    51   46   47 1   
    52   46   48 1   
    53   53   54 1   
    54   53   57 1   
    55   54   55 1   
    56   54   58 1   
    57   54   59 1   
    58   55   56 2   
    59   55   60 1   
    60   60   61 1   
    61   60   68 1   
    62   61   62 1   
    63   61   64 1   
    64   61   69 1   
    65   62   63 2   
    66   62   74 1   
    67   64   65 1   
    68   64   70 1   
    69   64   71 1   
    70   65   66 1   
    71   65   67 2   
    72   66   72 1   
    73   66   73 1   
    74   74   75 1   
    75   74   78 1   
    76   75   76 1   
    77   75   79 1   
    78   75   80 1   
    79   76   77 2   
    80   76   81 1   
    81   81   82 1   
    82   81   93 1   
    83   82   83 1   
    84   82   85 1   
    85   82   94 1   
    86   83   84 2   
    87   83  102 1   
    88   85   86 1   
    89   85   95 1   
    90   85   96 1   
    91   86   87 ar  
    92   86   88 ar  
    93   87   89 ar  
    94   87   97 1   
    95   88   90 ar  
    96   88   98 1   
    97   89   91 ar  
    98   89   99 1   
    99   90   91 ar  
   100   90  100 1   
   101   91   92 1   
   102   92  101 1   
   103  102  103 1   
   104  102  110 1   
   105  103  104 1   
   106  103  106 1   
   107  103  111 1   
   108  104  105 2   
   109  104  121 1   
   110  106  107 1   
   111  106  108 1   
   112  106  112 1   
   113  107  109 1   
   114  107  113 1   
   115  107  114 1   
   116  108  115 1   
   117  108  116 1   
   118  108  117 1   
   119  109  118 1   
   120  109  119 1   
   121  109  120 1   
   122  121  122 1   
   123  121  127 1   
   124  122  123 1   
   125  122  125 1   
   126  122  128 1   
   127  123  124 2   
   128  123  132 1   
   129  125  126 1   
   130  125  129 1   
   131  125  130 1   
   132  126  131 1   
   133  132  133 1   
   134  132  137 1   
   135  133  134 1   
   136  133  136 1   
   137  133  138 1   
   138  134  135 2   
   139  134  142 1   
   140  136  139 1   
   141  136  140 1   
   142  136  141 1   
   143  142  143 1   
   144  142  147 1   
   145  143  144 1   
   146  143  146 1   
   147  143  148 1   
   148  144  145 2   
   149  144  152 1   
   150  146  149 1   
   151  146  150 1   
   152  146  151 1   
   153  152  153 1   
   154  152  161 1   
   155  153  154 1   
   156  153  156 1   
   157  153  162 1   
   158  154  155 2   
   159  154  167 1   
   160  156  157 1   
   161  156  163 1   
   162  156  164 1   
   163  157  158 1   
   164  157  165 1   
   165  157  166 1   
   166  158  159 1   
   167  158  160 1   
   168  167  168 1   
   169  167  172 1   
   170  168  169 1   
   171  168  170 1   
   172  168  171 1   
   173  174  175 1   
   174  174  176 1   
   175  177  178 1   
   176  177  179 1   
   177  180  181 1   
   178  180  182 1   
   179  183  184 1   
   180  183  185 1   
   181  186  187 1   
   182  186  188 1   
   183  189  190 1   
   184  189  191 1   
@<TRIPOS>SUBSTRUCTURE
     1 MOL         1 TEMP              0 ****  ****    0 ROOT
