@<TRIPOS>MOLECULE
MOL
  198   191     1     0     0
SMALL
resp


@<TRIPOS>ATOM
      1 C1          1.1990    4.8480    1.3370 c3        1 MOL     -0.179837
      2 C2          0.1700    4.8500    0.1910 c         1 MOL      0.598514
      3 O1         -0.6110    3.8470   -0.0480 o         1 MOL     -0.516570
      4 H1          0.7510    4.4100    2.2280 hc        1 MOL      0.032167
      5 H2          2.0690    4.2610    1.0430 hc        1 MOL      0.032167
      6 H3          1.5060    5.8720    1.5510 hc        1 MOL      0.032167
      7 N1          0.0340    6.0550   -0.5000 n         1 MOL     -0.523025
      8 C3         -0.9990    6.3090   -1.5450 c3        1 MOL      0.001014
      9 C4         -2.3970    5.8500   -1.1120 c         1 MOL      0.571791
     10 O2         -3.1280    5.1740   -1.8400 o         1 MOL     -0.451907
     11 C5         -0.5500    5.7330   -2.9100 c3        1 MOL     -0.340767
     12 C6         -1.3120    6.3090   -4.0920 c         1 MOL      0.664569
     13 O3         -1.8060    7.4760   -4.0130 o         1 MOL     -0.612606
     14 O4         -1.4200    5.6160   -5.1320 o         1 MOL     -0.612606
     15 H4          0.7920    6.7090   -0.4750 hn        1 MOL      0.331223
     16 H5         -0.9890    7.4020   -1.6600 h1        1 MOL      0.066056
     17 H6         -0.6480    4.6520   -2.9440 hc        1 MOL      0.111965
     18 H7          0.5010    5.9900   -3.0050 hc        1 MOL      0.111965
     19 N2         -2.7940    5.9850    0.1320 n         1 MOL     -0.304321
     20 C7         -4.1510    5.6060    0.6100 c3        1 MOL     -0.314946
     21 C8         -5.1290    6.6860    0.0810 c         1 MOL      0.475835
     22 O5         -4.7550    7.7950   -0.2970 o         1 MOL     -0.525018
     23 C9         -4.1290    5.4810    2.1180 c3        1 MOL      0.230670
     24 C10        -3.7480    6.8380    2.7990 c3        1 MOL      0.188761
     25 C11        -3.2050    4.3350    2.5850 c3        1 MOL     -0.298795
     26 C12        -4.1330    7.0030    4.2810 c3        1 MOL     -0.186473
     27 H8         -2.1730    6.4780    0.7450 hn        1 MOL      0.173806
     28 H9         -4.4030    4.6220    0.2140 h1        1 MOL      0.207352
     29 H10        -5.1450    5.2350    2.4150 hc        1 MOL      0.010530
     30 H11        -4.2360    7.6330    2.2350 hc        1 MOL     -0.030001
     31 H12        -2.6960    7.0930    2.7270 hc        1 MOL     -0.030001
     32 H13        -2.2030    4.4370    2.1530 hc        1 MOL      0.061128
     33 H14        -3.2450    4.2500    3.6720 hc        1 MOL      0.061128
     34 H15        -3.6130    3.3510    2.3940 hc        1 MOL      0.061128
     35 H16        -3.4070    6.5080    4.9240 hc        1 MOL      0.021161
     36 H17        -4.0420    8.0610    4.5200 hc        1 MOL      0.021161
     37 H18        -5.1690    6.7040    4.4460 hc        1 MOL      0.021161
     38 N3         -6.4380    6.3350   -0.0660 n         1 MOL     -0.356890
     39 C13        -7.1680    5.1020    0.3540 c3        1 MOL      0.022100
     40 C14        -6.6930    3.8520   -0.2760 c         1 MOL      0.584650
     41 O6         -6.8210    2.8640    0.3840 o         1 MOL     -0.579561
     42 C15        -8.6380    5.2990   -0.0800 c3        1 MOL     -0.201933
     43 C16        -9.2270    6.5480    0.5320 c         1 MOL      0.757684
     44 O7        -10.1940    6.4930    1.2900 o         1 MOL     -0.660513
     45 O8         -8.7890    7.7030    0.2840 o         1 MOL     -0.660513
     46 H19        -6.9710    7.0610   -0.5110 hn        1 MOL      0.256714
     47 H20        -7.0990    4.9910    1.4330 h1        1 MOL      0.072669
     48 H21        -9.2610    4.4760    0.2670 hc        1 MOL      0.046739
     49 H22        -8.6590    5.4230   -1.1590 hc        1 MOL      0.046739
     50 N4         -6.1000    3.7770   -1.5060 n         1 MOL     -0.387906
     51 C17        -5.6000    2.5270   -2.1690 c3        1 MOL     -0.364226
     52 C18        -6.6130    1.4620   -2.4390 c         1 MOL      0.834904
     53 O9         -7.6760    1.6580   -3.0410 o         1 MOL     -0.586874
     54 H23        -6.0000    4.6210   -2.0440 hn        1 MOL      0.299361
     55 H24        -4.8450    2.0230   -1.5690 h1        1 MOL      0.163743
     56 H25        -5.0380    2.7940   -3.0660 h1        1 MOL      0.163743
     57 N5         -6.2420    0.2180   -1.9740 n         1 MOL     -0.676221
     58 C19        -6.7590   -1.0140   -2.5890 c3        1 MOL      0.029719
     59 C20        -7.4010   -1.9220   -1.5090 c         1 MOL      0.525186
     60 O10        -8.0750   -2.8830   -1.8950 o         1 MOL     -0.581778
     61 C21        -5.6910   -1.7920   -3.4110 c3        1 MOL     -0.218322
     62 C22        -4.4810   -2.1970   -2.6110 c         1 MOL      0.736258
     63 O11        -4.5930   -2.9990   -1.6490 o         1 MOL     -0.710300
     64 O12        -3.3850   -1.6290   -2.8890 o         1 MOL     -0.710300
     65 H26        -5.3400    0.1760   -1.5140 hn        1 MOL      0.346573
     66 H27        -7.6120   -0.7960   -3.2260 h1        1 MOL      0.099642
     67 H28        -5.4480   -1.1740   -4.2790 hc        1 MOL      0.055072
     68 H29        -6.0050   -2.7500   -3.8540 hc        1 MOL      0.055072
     69 N6         -7.0590   -1.7040   -0.2120 n         1 MOL     -0.280631
     70 C23        -7.5700   -2.4420    0.9800 c3        1 MOL     -0.326744
     71 C24        -7.0550   -3.8390    1.1730 c         1 MOL      0.557405
     72 O13        -7.3970   -4.5300    2.1800 o         1 MOL     -0.606779
     73 H30        -6.4760   -0.9060   -0.0510 hn        1 MOL      0.264201
     74 H31        -8.6580   -2.4320    0.9290 h1        1 MOL      0.151038
     75 H32        -7.3530   -1.8060    1.8460 h1        1 MOL      0.151038
     76 N7         -6.1180   -4.3130    0.3630 n         1 MOL     -0.239892
     77 C25        -5.4190   -5.5760    0.4810 c3        1 MOL      0.270691
     78 C26        -4.7690   -5.6920    1.8780 c         1 MOL      0.405426
     79 O14        -4.7440   -6.8310    2.4230 o         1 MOL     -0.512432
     80 C27        -6.3280   -6.7430    0.0000 c3        1 MOL     -0.024390
     81 C28        -7.0610   -6.5900   -1.3440 c3        1 MOL     -0.116139
     82 C29        -7.4310   -7.8790   -2.0940 c         1 MOL      0.602408
     83 N8         -8.5750   -7.9550   -2.7900 n         1 MOL     -0.799739
     84 O15        -6.7530   -8.9010   -2.1700 o         1 MOL     -0.555123
     85 H33        -5.9270   -3.8400   -0.5040 hn        1 MOL      0.124527
     86 H34        -4.5430   -5.4810   -0.1510 h1        1 MOL      0.031921
     87 H35        -7.0740   -6.9260    0.7750 hc        1 MOL      0.004182
     88 H36        -5.6590   -7.5950   -0.1260 hc        1 MOL      0.004182
     89 H37        -6.4560   -6.0530   -2.0870 hc        1 MOL      0.080864
     90 H38        -7.9860   -6.0370   -1.2060 hc        1 MOL      0.080864
     91 H39        -9.2770   -7.2450   -2.8830 hn        1 MOL      0.344888
     92 H40        -8.7450   -8.8540   -3.2310 hn        1 MOL      0.344888
     93 N9         -4.1160   -4.6580    2.5230 n         1 MOL     -0.331118
     94 C30        -3.4590   -4.7640    3.8350 c3        1 MOL     -0.156900
     95 C31        -1.9580   -4.4780    3.7690 c         1 MOL      0.639978
     96 O16        -1.2210   -4.8120    4.6660 o         1 MOL     -0.618165
     97 C32        -4.1630   -3.8770    4.8920 c3        1 MOL      0.430777
     98 C33        -4.2820   -2.3510    4.6420 c3        1 MOL     -0.363367
     99 C34        -5.5570   -4.4740    5.2760 c3        1 MOL     -0.363367
    100 H41        -4.0790   -3.7380    2.1150 hn        1 MOL      0.244581
    101 H42        -3.6040   -5.7670    4.2230 h1        1 MOL      0.100935
    102 H43        -3.5820   -3.8650    5.8250 hc        1 MOL     -0.078456
    103 H44        -3.2840   -1.9650    4.4760 hc        1 MOL      0.079990
    104 H45        -4.8970   -2.2910    3.7420 hc        1 MOL      0.079990
    105 H46        -4.8570   -1.9460    5.4800 hc        1 MOL      0.079990
    106 H47        -5.4270   -5.5490    5.4100 hc        1 MOL      0.079990
    107 H48        -5.8760   -3.9960    6.2000 hc        1 MOL      0.079990
    108 H49        -6.2300   -4.2610    4.4560 hc        1 MOL      0.079990
    109 N10        -1.4420   -3.8040    2.7630 n         1 MOL     -0.443688
    110 C35        -0.1120   -3.2070    2.6250 c3        1 MOL      0.389195
    111 C36         0.5820   -3.6610    1.2890 c         1 MOL      0.421979
    112 O17        -0.0350   -4.0300    0.3210 o         1 MOL     -0.496117
    113 C37        -0.3680   -1.6300    2.6340 c3        1 MOL     -0.475161
    114 C38         0.8310   -0.7450    2.4740 c         1 MOL      0.705072
    115 N11         0.7030    0.4140    1.8950 n         1 MOL     -0.728458
    116 O18         1.9270   -1.0150    2.8890 o         1 MOL     -0.603809
    117 H50        -2.0950   -3.6630    2.0140 hn        1 MOL      0.184277
    118 H51         0.4850   -3.4360    3.5080 h1        1 MOL      0.034046
    119 H52        -0.7370   -1.3250    3.6150 hc        1 MOL      0.147908
    120 H53        -0.9280   -1.3250    1.7500 hc        1 MOL      0.147908
    121 H54        -0.2140    0.7400    1.6300 hn        1 MOL      0.332672
    122 H55         1.5490    0.9550    1.7440 hn        1 MOL      0.332672
    123 N12         1.9120   -3.6740    1.2180 n         1 MOL     -0.575089
    124 C39         2.6700   -3.6870   -0.0550 c3        1 MOL      0.551066
    125 C40         4.1170   -4.1650    0.1230 c         1 MOL      0.414511
    126 O19         4.6020   -4.3570    1.2540 o         1 MOL     -0.577851
    127 C41         2.4950   -2.2930   -0.7430 c3        1 MOL     -0.428056
    128 C42         3.2460   -2.0680   -2.0400 ca        1 MOL      0.091554
    129 C43         2.9830   -2.8300   -3.2410 ca        1 MOL     -0.130209
    130 C44         4.3000   -1.1510   -2.0330 ca        1 MOL     -0.130209
    131 C45         3.7220   -2.5000   -4.3840 ca        1 MOL     -0.290975
    132 C46         5.0570   -0.8240   -3.1680 ca        1 MOL     -0.290975
    133 C47         4.7760   -1.4900   -4.3840 ca        1 MOL      0.366212
    134 O20         5.3910   -1.0780   -5.5350 oh        1 MOL     -0.484574
    135 H56         2.4230   -3.3920    2.0340 hn        1 MOL      0.261389
    136 H57         2.3010   -4.4920   -0.6800 h1        1 MOL     -0.015051
    137 H58         2.9120   -1.6460    0.0280 hc        1 MOL      0.153962
    138 H59         1.4190   -2.1730   -0.8710 hc        1 MOL      0.153962
    139 H60         2.2360   -3.6180   -3.2780 ha        1 MOL      0.140965
    140 H61         4.5320   -0.7220   -1.0710 ha        1 MOL      0.140965
    141 H62         3.6360   -3.0570   -5.3090 ha        1 MOL      0.152014
    142 H63         5.7940   -0.0320   -3.1570 ha        1 MOL      0.152014
    143 H64         5.1200   -1.6750   -6.2370 ho        1 MOL      0.364288
    144 N13         4.8010   -4.2640   -1.0230 n         1 MOL     -0.461277
    145 C48         6.3130   -4.5040   -1.1330 c3        1 MOL      0.324848
    146 C49         7.0250   -3.4840   -2.0440 c         1 MOL      0.445687
    147 O21         7.2190   -3.7080   -3.2210 o         1 MOL     -0.570877
    148 C50         6.7460   -5.9400   -1.6050 c3        1 MOL      0.055525
    149 C51         6.5250   -7.0210   -0.4760 c3        1 MOL     -0.177061
    150 C52         7.0010   -8.3660   -1.0770 c         1 MOL      0.662053
    151 O22         6.2510   -8.8710   -1.9360 o         1 MOL     -0.645559
    152 O23         8.0790   -8.8440   -0.7690 o         1 MOL     -0.645559
    153 H65         4.2680   -4.0220   -1.8440 hn        1 MOL      0.227183
    154 H66         6.7120   -4.4630   -0.1270 h1        1 MOL     -0.025223
    155 H67         7.8020   -5.9590   -1.8650 hc        1 MOL      0.009591
    156 H68         6.0850   -6.1850   -2.4430 hc        1 MOL      0.009591
    157 H69         5.4520   -7.0160   -0.3340 hc        1 MOL      0.023807
    158 H70         7.1000   -6.8630    0.4400 hc        1 MOL      0.023807
    159 N14         7.4250   -2.3030   -1.5390 n         1 MOL     -0.289397
    160 C53         7.3280   -1.7720   -0.1610 c3        1 MOL     -0.372105
    161 C54         8.1890   -2.5660    0.8460 c         1 MOL      0.406266
    162 O24         9.2580   -3.0120    0.4810 o         1 MOL     -0.510593
    163 C55         7.6270   -0.3020   -0.2240 c3        1 MOL      0.763783
    164 C56         7.6650    0.5820    1.0130 c3        1 MOL     -1.233905
    165 C57         8.0100    2.0560    0.7730 c         1 MOL      0.846883
    166 O25         9.2470    2.4060    0.6020 o         1 MOL     -0.567244
    167 O26         7.1340    3.0110    0.8110 o         1 MOL     -0.567244
    168 H71         7.8670   -1.6790   -2.1980 hn        1 MOL      0.239155
    169 H72         6.3080   -1.8520    0.1990 h1        1 MOL      0.064732
    170 H73         6.8760    0.0710   -0.9180 hc        1 MOL     -0.060637
    171 H74         8.5530   -0.1710   -0.8000 hc        1 MOL     -0.060637
    172 H75         8.5220    0.2290    1.5790 hc        1 MOL      0.233734
    173 H76         6.7800    0.4280    1.6390 hc        1 MOL      0.233734
    174 N15         7.6080   -2.5790    2.0320 n         1 MOL     -0.038038
    175 C58         8.1590   -2.8570    3.3760 c3        1 MOL     -0.312454
    176 H77         7.3660   -3.2330    4.0230 h1        1 MOL      0.116586
    177 H78         8.9490   -3.6050    3.2980 h1        1 MOL      0.116586
    178 H79         8.5680   -1.9390    3.7990 h1        1 MOL      0.116586
    179 H80         6.6860   -2.1900    2.0100 hn        1 MOL      0.244971
    180 Ca1         8.8670    5.0930    1.1120 Ca        1 MOL      1.533254
    181 O27         6.3420    5.6550   -0.1630 oh        1 MOL     -0.830708
    182 H81         6.3450    6.3630   -0.7950 ho        1 MOL      0.362668
    183 H82         5.4180    5.4910    0.0160 ho        1 MOL      0.362668
    184 O28         9.7140    6.9850    3.0080 oh        1 MOL     -0.830708
    185 H83         9.5880    7.8630    2.6460 ho        1 MOL      0.362668
    186 H84         9.8670    7.1340    3.9420 ho        1 MOL      0.362668
    187 O29        11.3160    5.1710    0.1340 oh        1 MOL     -0.830708
    188 H85        11.5690    4.3990   -0.3740 ho        1 MOL      0.362668
    189 H86        12.1280    5.6780    0.2190 ho        1 MOL      0.362668
    190 O30         9.2120    7.5880    0.0130 oh        1 MOL     -0.830708
    191 H87         9.0860    8.3310    0.5980 ho        1 MOL      0.362668
    192 H88         9.4000    7.9770   -0.8380 ho        1 MOL      0.362668
    193 O31         9.7520    4.0140    3.3440 oh        1 MOL     -0.830708
    194 H89         9.9540    4.2300    4.2490 ho        1 MOL      0.362668
    195 H90        10.1850    3.1730    3.1780 ho        1 MOL      0.362668
    196 O32         8.8670    4.7000   -1.6210 oh        1 MOL     -0.830708
    197 H91         8.8800    5.4610   -2.2020 ho        1 MOL      0.362668
    198 H92         9.0010    3.9580   -2.2250 ho        1 MOL      0.362668
@<TRIPOS>BOND
     1    1    2 1   
     2    1    4 1   
     3    1    5 1   
     4    1    6 1   
     5    2    3 2   
     6    2    7 1   
     7    7    8 1   
     8    7   15 1   
     9    8    9 1   
    10    8   11 1   
    11    8   16 1   
    12    9   10 2   
    13    9   19 1   
    14   11   12 1   
    15   11   17 1   
    16   11   18 1   
    17   12   13 1   
    18   12   14 1   
    19   19   20 1   
    20   19   27 1   
    21   20   21 1   
    22   20   23 1   
    23   20   28 1   
    24   21   22 2   
    25   21   38 1   
    26   23   24 1   
    27   23   25 1   
    28   23   29 1   
    29   24   26 1   
    30   24   30 1   
    31   24   31 1   
    32   25   32 1   
    33   25   33 1   
    34   25   34 1   
    35   26   35 1   
    36   26   36 1   
    37   26   37 1   
    38   38   39 1   
    39   38   46 1   
    40   39   40 1   
    41   39   42 1   
    42   39   47 1   
    43   40   41 2   
    44   40   50 1   
    45   42   43 1   
    46   42   48 1   
    47   42   49 1   
    48   43   44 1   
    49   43   45 1   
    50   50   51 1   
    51   50   54 1   
    52   51   52 1   
    53   51   55 1   
    54   51   56 1   
    55   52   53 2   
    56   52   57 1   
    57   57   58 1   
    58   57   65 1   
    59   58   59 1   
    60   58   61 1   
    61   58   66 1   
    62   59   60 2   
    63   59   69 1   
    64   61   62 1   
    65   61   67 1   
    66   61   68 1   
    67   62   63 1   
    68   62   64 1   
    69   69   70 1   
    70   69   73 1   
    71   70   71 1   
    72   70   74 1   
    73   70   75 1   
    74   71   72 2   
    75   71   76 1   
    76   76   77 1   
    77   76   85 1   
    78   77   78 1   
    79   77   80 1   
    80   77   86 1   
    81   78   79 2   
    82   78   93 1   
    83   80   81 1   
    84   80   87 1   
    85   80   88 1   
    86   81   82 1   
    87   81   89 1   
    88   81   90 1   
    89   82   83 1   
    90   82   84 2   
    91   83   91 1   
    92   83   92 1   
    93   93   94 1   
    94   93  100 1   
    95   94   95 1   
    96   94   97 1   
    97   94  101 1   
    98   95   96 2   
    99   95  109 1   
   100   97   98 1   
   101   97   99 1   
   102   97  102 1   
   103   98  103 1   
   104   98  104 1   
   105   98  105 1   
   106   99  106 1   
   107   99  107 1   
   108   99  108 1   
   109  109  110 1   
   110  109  117 1   
   111  110  111 1   
   112  110  113 1   
   113  110  118 1   
   114  111  112 2   
   115  111  123 1   
   116  113  114 1   
   117  113  119 1   
   118  113  120 1   
   119  114  115 1   
   120  114  116 2   
   121  115  121 1   
   122  115  122 1   
   123  123  124 1   
   124  123  135 1   
   125  124  125 1   
   126  124  127 1   
   127  124  136 1   
   128  125  126 2   
   129  125  144 1   
   130  127  128 1   
   131  127  137 1   
   132  127  138 1   
   133  128  129 ar  
   134  128  130 ar  
   135  129  131 ar  
   136  129  139 1   
   137  130  132 ar  
   138  130  140 1   
   139  131  133 ar  
   140  131  141 1   
   141  132  133 ar  
   142  132  142 1   
   143  133  134 1   
   144  134  143 1   
   145  144  145 1   
   146  144  153 1   
   147  145  146 1   
   148  145  148 1   
   149  145  154 1   
   150  146  147 2   
   151  146  159 1   
   152  148  149 1   
   153  148  155 1   
   154  148  156 1   
   155  149  150 1   
   156  149  157 1   
   157  149  158 1   
   158  150  151 1   
   159  150  152 1   
   160  159  160 1   
   161  159  168 1   
   162  160  161 1   
   163  160  163 1   
   164  160  169 1   
   165  161  162 2   
   166  161  174 1   
   167  163  164 1   
   168  163  170 1   
   169  163  171 1   
   170  164  165 1   
   171  164  172 1   
   172  164  173 1   
   173  165  166 1   
   174  165  167 1   
   175  174  175 1   
   176  174  179 1   
   177  175  176 1   
   178  175  177 1   
   179  175  178 1   
   180  181  182 1   
   181  181  183 1   
   182  184  185 1   
   183  184  186 1   
   184  187  188 1   
   185  187  189 1   
   186  190  191 1   
   187  190  192 1   
   188  193  194 1   
   189  193  195 1   
   190  196  197 1   
   191  196  198 1   
@<TRIPOS>SUBSTRUCTURE
     1 MOL         1 TEMP              0 ****  ****    0 ROOT
