@<TRIPOS>MOLECULE
MOL
  189   185     1     0     0
SMALL
resp


@<TRIPOS>ATOM
      1 C1          9.2040    0.9990    1.2860 c3        1 MOL     -0.575149
      2 C2          8.0220    0.5460    0.4530 c         1 MOL      0.857202
      3 O1          6.9010    0.4510    0.9130 o         1 MOL     -0.681259
      4 H1          8.8540    1.6470    2.0900 hc        1 MOL      0.147443
      5 H2          9.7030    0.1290    1.7130 hc        1 MOL      0.147443
      6 H3          9.9040    1.5470    0.6570 hc        1 MOL      0.147443
      7 N1          8.3270    0.2530   -0.8140 n         1 MOL     -0.744311
      8 C3          7.3210   -0.0770   -1.7930 c3        1 MOL      0.232447
      9 C4          6.6850   -1.5020   -1.6710 c         1 MOL      0.511213
     10 O2          6.2010   -2.0480   -2.6950 o         1 MOL     -0.509790
     11 C5          7.7490    0.3500   -3.2260 c3        1 MOL     -0.341432
     12 C6          8.8150    1.4700   -3.3800 c         1 MOL      0.770725
     13 O3          8.8970    2.5740   -2.7620 o         1 MOL     -0.640599
     14 O4          9.6580    1.3700   -4.2760 o         1 MOL     -0.640599
     15 H4          9.2570    0.3590   -1.1820 hn        1 MOL      0.356145
     16 H5          6.4910    0.6060   -1.5960 h1        1 MOL      0.088623
     17 H6          6.8410    0.6700   -3.7250 hc        1 MOL      0.091214
     18 H7          8.1160   -0.5610   -3.6920 hc        1 MOL      0.091214
     19 N2          6.7400   -2.1100   -0.4880 n         1 MOL     -0.386990
     20 C7          6.2380   -3.5040   -0.1460 c3        1 MOL     -0.008902
     21 C8          4.7230   -3.7920   -0.3720 c         1 MOL      0.542866
     22 O5          4.3400   -4.9230   -0.7010 o         1 MOL     -0.543360
     23 C9          6.7360   -3.8980    1.2900 c3        1 MOL     -0.151367
     24 C10         8.2400   -3.9610    1.4500 c3        1 MOL     -0.179839
     25 C11         8.7490   -4.4790    2.8190 c3        1 MOL     -0.036627
     26 C12        10.2700   -4.3150    3.0550 c3        1 MOL      0.152870
     27 N3         10.6670   -4.7450    4.3800 n4        1 MOL     -0.321921
     28 H8          7.1640   -1.5970    0.2610 hn        1 MOL      0.270118
     29 H9          6.8040   -4.1400   -0.8370 h1        1 MOL      0.086127
     30 H10         6.3820   -4.9190    1.4130 hc        1 MOL      0.081978
     31 H11         6.2180   -3.2630    2.0080 hc        1 MOL      0.081978
     32 H12         8.6840   -3.0360    1.0880 hc        1 MOL      0.083790
     33 H13         8.6170   -4.7420    0.7790 hc        1 MOL      0.083790
     34 H14         8.6120   -5.5540    2.9490 hc        1 MOL      0.042921
     35 H15         8.2550   -3.9350    3.6180 hc        1 MOL      0.042921
     36 H16        10.6270   -3.2960    2.8860 hx        1 MOL      0.032024
     37 H17        10.7490   -4.9290    2.2950 hx        1 MOL      0.032024
     38 H18        11.6600   -4.5830    4.5370 hn        1 MOL      0.246712
     39 H19        10.1200   -4.1990    5.0270 hn        1 MOL      0.246712
     40 H20        10.5080   -5.7370    4.3960 hn        1 MOL      0.246712
     41 N4          3.7900   -2.8490   -0.1910 n         1 MOL     -0.424256
     42 C13         3.9260   -1.5950    0.5050 c3        1 MOL      0.209594
     43 C14         3.7410   -0.3750   -0.3930 c         1 MOL      0.138262
     44 O6          3.2410   -0.4340   -1.5360 o         1 MOL     -0.369943
     45 C15         2.8520   -1.5320    1.6080 c3        1 MOL     -0.243157
     46 C16         1.5010   -1.9890    1.1270 c         1 MOL      0.719843
     47 O7          0.6680   -1.1900    0.6240 o         1 MOL     -0.684908
     48 O8          1.2830   -3.2380    1.1350 o         1 MOL     -0.684908
     49 H21         2.8560   -3.2010   -0.2610 hn        1 MOL      0.329220
     50 H22         4.8970   -1.5080    0.9900 h1        1 MOL      0.080030
     51 H23         2.8250   -0.5130    2.0010 hc        1 MOL      0.026889
     52 H24         3.2030   -2.2510    2.3420 hc        1 MOL      0.026889
     53 N5          4.2340    0.8050    0.1150 n         1 MOL     -0.312431
     54 C17         4.1980    2.1050   -0.5240 c3        1 MOL      0.011461
     55 C18         2.7560    2.6620   -0.7990 c         1 MOL      0.639849
     56 O9          1.7150    2.1310   -0.3690 o         1 MOL     -0.645868
     57 H25         4.9870    0.7010    0.7820 hn        1 MOL      0.274737
     58 H26         4.8610    2.1090   -1.3950 h1        1 MOL      0.063205
     59 H27         4.5890    2.8770    0.1320 h1        1 MOL      0.063205
     60 N6          2.7440    3.8460   -1.4000 n         1 MOL     -0.584345
     61 C19         1.6310    4.7720   -1.8470 c3        1 MOL      0.452999
     62 C20         1.9910    6.2720   -1.7420 c         1 MOL      0.326602
     63 O10         3.1890    6.5810   -1.7170 o         1 MOL     -0.484926
     64 C21         1.2090    4.3930   -3.2650 c3        1 MOL     -0.155966
     65 C22         0.5270    2.9820   -3.4510 c         1 MOL      0.573950
     66 O11         0.9590    2.3600   -4.4430 o         1 MOL     -0.639264
     67 O12        -0.3760    2.5490   -2.7020 o         1 MOL     -0.639264
     68 H28         3.6610    4.1770   -1.6810 hn        1 MOL      0.282307
     69 H29         0.7130    4.5240   -1.3000 h1        1 MOL     -0.000268
     70 H30         2.0950    4.5020   -3.8910 hc        1 MOL      0.033243
     71 H31         0.5370    5.1570   -3.6730 hc        1 MOL      0.033243
     72 N7          0.9500    7.1680   -1.6690 n         1 MOL     -0.410893
     73 C23        -0.4880    6.9990   -1.5970 c3        1 MOL     -0.105818
     74 C24        -1.0240    6.3780   -0.3120 c         1 MOL      0.641704
     75 O13        -0.6010    6.6400    0.7940 o         1 MOL     -0.532206
     76 H32         1.2340    8.1220   -1.5030 hn        1 MOL      0.320788
     77 H33        -0.7630    6.2670   -2.3550 h1        1 MOL      0.079203
     78 H34        -0.9360    7.9760   -1.7830 h1        1 MOL      0.079203
     79 N8         -1.9830    5.4520   -0.4660 n         1 MOL     -0.568473
     80 C25        -2.7310    4.7360    0.6250 c3        1 MOL     -0.002195
     81 C26        -1.8820    3.5430    1.1320 c         1 MOL      0.743597
     82 O14        -1.2480    2.8280    0.3140 o         1 MOL     -0.687186
     83 C27        -4.0340    4.1430   -0.0490 c3        1 MOL      0.631298
     84 C28        -4.8170    5.1330   -0.8510 c3        1 MOL     -0.359582
     85 O15        -4.8670    3.7150    0.9100 oh        1 MOL     -0.727440
     86 H35        -2.2220    5.2520   -1.4260 hn        1 MOL      0.261135
     87 H36        -2.9010    5.3400    1.5140 h1        1 MOL      0.070305
     88 H37        -3.7760    3.3110   -0.6930 h1        1 MOL     -0.086573
     89 H38        -5.6820    3.3970    0.5200 ho        1 MOL      0.384324
     90 H39        -5.8490    4.7710   -0.8650 hc        1 MOL      0.077803
     91 H40        -4.7660    6.1500   -0.4580 hc        1 MOL      0.077803
     92 H41        -4.5040    5.1340   -1.8910 hc        1 MOL      0.077803
     93 N9         -1.8120    3.3130    2.4470 n         1 MOL     -0.539567
     94 C29        -0.9620    2.2950    3.1050 c3        1 MOL     -0.042457
     95 C30        -1.5680    0.9310    2.7000 c         1 MOL      0.562757
     96 O16        -1.5770    0.5450    1.5470 o         1 MOL     -0.548020
     97 C31         0.5480    2.4420    3.0010 c3        1 MOL      0.039198
     98 C32         0.9530    3.8170    3.6210 c3        1 MOL      0.202796
     99 C33         1.3710    1.3130    3.7170 c3        1 MOL     -0.321449
    100 C34         2.3390    4.4230    3.2970 c3        1 MOL     -0.135141
    101 H42        -2.3490    3.8850    3.0830 hn        1 MOL      0.304111
    102 H43        -1.1170    2.3810    4.1830 h1        1 MOL      0.050774
    103 H44         0.8270    2.4480    1.9510 hc        1 MOL      0.081276
    104 H45         0.7470    3.8670    4.6870 hc        1 MOL     -0.042882
    105 H46         0.3240    4.6280    3.2520 hc        1 MOL     -0.042882
    106 H47         2.4430    1.5050    3.6170 hc        1 MOL      0.075678
    107 H48         1.0870    1.3370    4.7710 hc        1 MOL      0.075678
    108 H49         1.1580    0.3130    3.3230 hc        1 MOL      0.075678
    109 H50         2.5100    4.4750    2.2250 hc        1 MOL      0.030811
    110 H51         2.3860    5.4230    3.7280 hc        1 MOL      0.030811
    111 H52         3.0930    3.8070    3.7850 hc        1 MOL      0.030811
    112 N10        -1.8570    0.1310    3.7500 n         1 MOL     -0.339008
    113 C35        -2.3780   -1.2570    3.6990 c3        1 MOL     -0.232054
    114 C36        -3.7000   -1.4110    2.9170 c         1 MOL      0.476850
    115 O17        -4.1010   -2.5450    2.5460 o         1 MOL     -0.552472
    116 C37        -2.5920   -1.8860    5.1300 c3        1 MOL      0.352951
    117 C38        -3.7210   -1.3050    5.9940 c3        1 MOL     -0.172750
    118 O18        -1.4020   -1.7960    5.8180 oh        1 MOL     -0.616277
    119 H53        -1.6780    0.3990    4.7090 hn        1 MOL      0.289079
    120 H54        -1.6360   -1.8430    3.1560 h1        1 MOL      0.133788
    121 H55        -2.8700   -2.9490    5.0660 h1        1 MOL      0.027538
    122 H56        -0.8400   -2.5290    5.5560 ho        1 MOL      0.411157
    123 H57        -3.6040   -0.2630    6.2960 hc        1 MOL      0.050162
    124 H58        -4.6770   -1.4050    5.4890 hc        1 MOL      0.050162
    125 H59        -3.8990   -1.8670    6.9100 hc        1 MOL      0.050162
    126 N11        -4.4680   -0.3110    2.8500 n         1 MOL     -0.070264
    127 C39        -5.8000   -0.2980    2.2380 c3        1 MOL     -0.355786
    128 C40        -5.6840   -0.6980    0.7520 c         1 MOL      0.604489
    129 O19        -4.9950    0.0080   -0.0340 o         1 MOL     -0.523343
    130 C41        -6.6080    0.9650    2.5530 c3        1 MOL      0.275591
    131 C42        -8.1120    0.7080    2.3030 c3        1 MOL     -0.338158
    132 O20        -6.5590    1.4140    3.8850 oh        1 MOL     -0.626647
    133 H60        -4.0730    0.5340    3.2350 hn        1 MOL      0.138922
    134 H61        -6.3270   -1.1000    2.7760 h1        1 MOL      0.128586
    135 H62        -6.1640    1.7990    2.0210 h1        1 MOL      0.146619
    136 H63        -6.8290    0.8500    4.6120 ho        1 MOL      0.414549
    137 H64        -8.6550    0.0450    2.9750 hc        1 MOL      0.092199
    138 H65        -8.6920    1.6370    2.3140 hc        1 MOL      0.092199
    139 H66        -8.2630    0.3570    1.2800 hc        1 MOL      0.092199
    140 N12        -6.4570   -1.7460    0.3870 n         1 MOL     -0.418407
    141 C43        -6.6460   -2.2930   -0.9620 c3        1 MOL      0.296957
    142 C44        -5.3540   -2.4400   -1.7320 c         1 MOL      0.389724
    143 O21        -5.1180   -1.9800   -2.8480 o         1 MOL     -0.513409
    144 C45        -7.8170   -1.7810   -1.7620 c3        1 MOL     -0.372693
    145 C46        -9.1510   -1.8610   -1.0160 c3        1 MOL      0.031657
    146 C47       -10.3540   -1.2790   -1.7960 c3        1 MOL      0.020619
    147 C48       -11.8150   -1.4380   -1.3140 c3        1 MOL      0.088244
    148 N13       -12.8090   -1.5330   -2.4380 n4        1 MOL     -0.197233
    149 H67        -7.0230   -2.1770    1.1020 hn        1 MOL      0.248324
    150 H68        -6.8800   -3.3600   -0.8700 h1        1 MOL     -0.005625
    151 H69        -7.8380   -2.3220   -2.7050 hc        1 MOL      0.117899
    152 H70        -7.5740   -0.7470   -2.0060 hc        1 MOL      0.117899
    153 H71        -9.0420   -1.4230   -0.0150 hc        1 MOL      0.021622
    154 H72        -9.3850   -2.9050   -0.7980 hc        1 MOL      0.021622
    155 H73       -10.3010   -1.6590   -2.8180 hc        1 MOL      0.020338
    156 H74       -10.1690   -0.2070   -1.8990 hc        1 MOL      0.020338
    157 H75       -12.0490   -0.6250   -0.6280 hx        1 MOL      0.033026
    158 H76       -11.9120   -2.3500   -0.7310 hx        1 MOL      0.033026
    159 H77       -13.7020   -1.7600   -2.0170 hn        1 MOL      0.199464
    160 H78       -12.8120   -0.6730   -2.9680 hn        1 MOL      0.199464
    161 H79       -12.6230   -2.2720   -3.0890 hn        1 MOL      0.199464
    162 N14        -4.3480   -3.1220   -1.1610 n         1 MOL     -0.265486
    163 C49        -3.0840   -3.3200   -1.7860 c3        1 MOL      0.132101
    164 C50        -1.9230   -2.9150   -0.8140 c         1 MOL      0.344989
    165 O22        -1.5330   -1.7820   -0.9460 o         1 MOL     -0.554272
    166 C51        -2.9430   -4.7290   -2.4190 c3        1 MOL     -0.016049
    167 C52        -3.7500   -4.7670   -3.7150 c3        1 MOL     -0.350893
    168 C53        -3.3540   -6.0510   -4.5070 c         1 MOL      0.663366
    169 O23        -2.4930   -6.0290   -5.4350 o         1 MOL     -0.594792
    170 O24        -3.7610   -7.1570   -4.1320 o         1 MOL     -0.594792
    171 H80        -4.4820   -3.4100   -0.2020 hn        1 MOL      0.205558
    172 H81        -2.9820   -2.5260   -2.5260 h1        1 MOL      0.085491
    173 H82        -3.3580   -5.3770   -1.6410 hc        1 MOL      0.057941
    174 H83        -1.9120   -4.9830   -2.6430 hc        1 MOL      0.057941
    175 H84        -3.4150   -3.9170   -4.2990 hc        1 MOL      0.091544
    176 H85        -4.8230   -4.6940   -3.5490 hc        1 MOL      0.091544
    177 N15        -1.3400   -3.6550    0.1290 n         1 MOL     -0.260353
    178 C54        -1.6780   -5.0480    0.4810 c3        1 MOL     -0.064469
    179 H86        -1.1080   -5.7300   -0.1490 h1        1 MOL      0.041283
    180 H87        -1.4320   -5.2280    1.5270 h1        1 MOL      0.041283
    181 H88        -2.7440   -5.2140    0.3230 h1        1 MOL      0.041283
    182 H89        -0.5920   -3.2320    0.6570 hn        1 MOL      0.333675
    183 Ca1        -0.4970    0.6500   -0.8830 Ca        1 MOL      1.841852
    184 O25        -2.9980    1.1290   -1.5030 oh        1 MOL     -0.971178
    185 H90        -3.4500    1.3110   -2.3220 ho        1 MOL      0.459933
    186 H91        -3.7040    0.9470   -0.8740 ho        1 MOL      0.459933
    187 O26         0.3440   -0.5550   -2.9850 oh        1 MOL     -0.971178
    188 H92         0.1590   -0.3130   -3.8890 ho        1 MOL      0.459933
    189 H93         0.8440   -1.3680   -3.0550 ho        1 MOL      0.459933
@<TRIPOS>BOND
     1    1    2 1   
     2    1    4 1   
     3    1    5 1   
     4    1    6 1   
     5    2    3 2   
     6    2    7 1   
     7    7    8 1   
     8    7   15 1   
     9    8    9 1   
    10    8   11 1   
    11    8   16 1   
    12    9   10 2   
    13    9   19 1   
    14   11   12 1   
    15   11   17 1   
    16   11   18 1   
    17   12   13 1   
    18   12   14 1   
    19   19   20 1   
    20   19   28 1   
    21   20   21 1   
    22   20   23 1   
    23   20   29 1   
    24   21   22 2   
    25   21   41 1   
    26   23   24 1   
    27   23   30 1   
    28   23   31 1   
    29   24   25 1   
    30   24   32 1   
    31   24   33 1   
    32   25   26 1   
    33   25   34 1   
    34   25   35 1   
    35   26   27 1   
    36   26   36 1   
    37   26   37 1   
    38   27   38 1   
    39   27   39 1   
    40   27   40 1   
    41   41   42 1   
    42   41   49 1   
    43   42   43 1   
    44   42   45 1   
    45   42   50 1   
    46   43   44 2   
    47   43   53 1   
    48   45   46 1   
    49   45   51 1   
    50   45   52 1   
    51   46   47 1   
    52   46   48 1   
    53   53   54 1   
    54   53   57 1   
    55   54   55 1   
    56   54   58 1   
    57   54   59 1   
    58   55   56 2   
    59   55   60 1   
    60   60   61 1   
    61   60   68 1   
    62   61   62 1   
    63   61   64 1   
    64   61   69 1   
    65   62   63 2   
    66   62   72 1   
    67   64   65 1   
    68   64   70 1   
    69   64   71 1   
    70   65   66 1   
    71   65   67 1   
    72   72   73 1   
    73   72   76 1   
    74   73   74 1   
    75   73   77 1   
    76   73   78 1   
    77   74   75 2   
    78   74   79 1   
    79   79   80 1   
    80   79   86 1   
    81   80   81 1   
    82   80   83 1   
    83   80   87 1   
    84   81   82 2   
    85   81   93 1   
    86   83   84 1   
    87   83   85 1   
    88   83   88 1   
    89   84   90 1   
    90   84   91 1   
    91   84   92 1   
    92   85   89 1   
    93   93   94 1   
    94   93  101 1   
    95   94   95 1   
    96   94   97 1   
    97   94  102 1   
    98   95   96 2   
    99   95  112 1   
   100   97   98 1   
   101   97   99 1   
   102   97  103 1   
   103   98  100 1   
   104   98  104 1   
   105   98  105 1   
   106   99  106 1   
   107   99  107 1   
   108   99  108 1   
   109  100  109 1   
   110  100  110 1   
   111  100  111 1   
   112  112  113 1   
   113  112  119 1   
   114  113  114 1   
   115  113  116 1   
   116  113  120 1   
   117  114  115 2   
   118  114  126 1   
   119  116  117 1   
   120  116  118 1   
   121  116  121 1   
   122  117  123 1   
   123  117  124 1   
   124  117  125 1   
   125  118  122 1   
   126  126  127 1   
   127  126  133 1   
   128  127  128 1   
   129  127  130 1   
   130  127  134 1   
   131  128  129 2   
   132  128  140 1   
   133  130  131 1   
   134  130  132 1   
   135  130  135 1   
   136  131  137 1   
   137  131  138 1   
   138  131  139 1   
   139  132  136 1   
   140  140  141 1   
   141  140  149 1   
   142  141  142 1   
   143  141  144 1   
   144  141  150 1   
   145  142  143 2   
   146  142  162 1   
   147  144  145 1   
   148  144  151 1   
   149  144  152 1   
   150  145  146 1   
   151  145  153 1   
   152  145  154 1   
   153  146  147 1   
   154  146  155 1   
   155  146  156 1   
   156  147  148 1   
   157  147  157 1   
   158  147  158 1   
   159  148  159 1   
   160  148  160 1   
   161  148  161 1   
   162  162  163 1   
   163  162  171 1   
   164  163  164 1   
   165  163  166 1   
   166  163  172 1   
   167  164  165 2   
   168  164  177 1   
   169  166  167 1   
   170  166  173 1   
   171  166  174 1   
   172  167  168 1   
   173  167  175 1   
   174  167  176 1   
   175  168  169 1   
   176  168  170 1   
   177  177  178 1   
   178  177  182 1   
   179  178  179 1   
   180  178  180 1   
   181  178  181 1   
   182  184  185 1   
   183  184  186 1   
   184  187  188 1   
   185  187  189 1   
@<TRIPOS>SUBSTRUCTURE
     1 MOL         1 TEMP              0 ****  ****    0 ROOT
