@<TRIPOS>MOLECULE
MOL
  192   187     1     0     0
SMALL
resp


@<TRIPOS>ATOM
      1 C1          9.6610    0.7440    1.6880 c3        1 MOL     -0.710790
      2 C2          8.4730    0.3790    0.7850 c         1 MOL      0.981942
      3 O1          7.3170    0.4810    1.2350 o         1 MOL     -0.752687
      4 H1          9.3330    1.4480    2.4530 hc        1 MOL      0.174262
      5 H2         10.0460   -0.1570    2.1650 hc        1 MOL      0.174262
      6 H3         10.4480    1.2020    1.0890 hc        1 MOL      0.174262
      7 N1          8.7330    0.1220   -0.5090 n         1 MOL     -0.798194
      8 C3          7.6440    0.0340   -1.5030 c3        1 MOL      0.242674
      9 C4          6.9890   -1.3900   -1.4770 c         1 MOL      0.375060
     10 O2          6.9020   -2.0570   -2.5140 o         1 MOL     -0.468960
     11 C5          8.0560    0.5210   -2.8990 c3        1 MOL     -0.283464
     12 C6          9.2350   -0.1760   -3.5300 c         1 MOL      0.759946
     13 O3         10.1420   -0.7260   -2.8880 o         1 MOL     -0.650099
     14 O4          9.3520    0.0080   -4.7640 o         1 MOL     -0.650099
     15 H4          9.6890    0.3160   -0.7450 hn        1 MOL      0.352146
     16 H5          6.7330    0.5990   -1.2850 h1        1 MOL      0.036884
     17 H6          8.3540    1.5520   -2.7230 hc        1 MOL      0.090146
     18 H7          7.1590    0.4740   -3.5290 hc        1 MOL      0.090146
     19 N2          6.5490   -1.7950   -0.2950 n         1 MOL     -0.125857
     20 C7          6.2040   -3.1490    0.1030 c3        1 MOL     -0.054800
     21 C8          4.7740   -3.4860   -0.2450 c         1 MOL      0.588568
     22 O5          4.5250   -4.5080   -0.8270 o         1 MOL     -0.556117
     23 C9          6.6160   -3.5720    1.5440 c3        1 MOL     -0.000872
     24 C10         8.1370   -3.7790    1.7800 c3        1 MOL      0.066147
     25 C11         8.5030   -4.2000    3.1320 c3        1 MOL      0.349176
     26 C12        10.0150   -4.0940    3.4340 c3        1 MOL      0.101331
     27 N3         10.2160   -4.2380    4.8930 n4        1 MOL     -0.300760
     28 H8          6.6620   -1.1590    0.4720 hn        1 MOL      0.245415
     29 H9          6.8230   -3.7660   -0.5540 h1        1 MOL      0.074392
     30 H10         6.1500   -4.5350    1.7530 hc        1 MOL     -0.002202
     31 H11         6.2650   -2.8340    2.2640 hc        1 MOL     -0.002202
     32 H12         8.4670   -2.7520    1.6050 hc        1 MOL     -0.045598
     33 H13         8.7080   -4.4450    1.1430 hc        1 MOL     -0.045598
     34 H14         8.1320   -5.1620    3.5060 hc        1 MOL     -0.100605
     35 H15         8.0950   -3.4680    3.8290 hc        1 MOL     -0.100605
     36 H16        10.4190   -3.1450    3.0810 hx        1 MOL      0.035361
     37 H17        10.5490   -4.9110    2.9590 hx        1 MOL      0.035361
     38 H18        10.0330   -5.1940    5.1920 hn        1 MOL      0.246920
     39 H19        11.1080   -3.9360    5.2650 hn        1 MOL      0.246920
     40 H20         9.6330   -3.5490    5.3440 hn        1 MOL      0.246920
     41 N4          3.7480   -2.7620    0.1300 n         1 MOL     -0.495480
     42 C13         3.8490   -1.4800    0.8980 c3        1 MOL     -0.007214
     43 C14         4.0530   -0.1800    0.0340 c         1 MOL      0.126848
     44 O6          3.8730   -0.2270   -1.1910 o         1 MOL     -0.412585
     45 C15         2.5870   -1.3020    1.8440 c3        1 MOL      0.017609
     46 C16         1.3340   -1.6840    1.1310 c         1 MOL      0.568040
     47 O7          0.7440   -0.7730    0.5500 o         1 MOL     -0.626373
     48 O8          1.0580   -2.9030    1.1590 o         1 MOL     -0.626373
     49 H21         2.8910   -3.1370   -0.2580 hn        1 MOL      0.350685
     50 H22         4.6870   -1.5580    1.5900 h1        1 MOL      0.107941
     51 H23         2.5140   -0.2800    2.2120 hc        1 MOL     -0.023157
     52 H24         2.7640   -1.9540    2.6900 hc        1 MOL     -0.023157
     53 N5          4.2470    0.9930    0.6350 n         1 MOL     -0.092208
     54 C17         4.2640    2.3540    0.0800 c3        1 MOL     -0.145773
     55 C18         2.9020    2.7520   -0.4750 c         1 MOL      0.488500
     56 O9          1.9010    2.0690   -0.3220 o         1 MOL     -0.530058
     57 H25         4.2350    0.9160    1.6460 hn        1 MOL      0.209308
     58 H26         5.0930    2.3230   -0.6150 h1        1 MOL      0.114372
     59 H27         4.6260    3.0500    0.8330 h1        1 MOL      0.114372
     60 N6          2.9810    3.9510   -1.1230 n         1 MOL     -0.576734
     61 C19         1.8580    4.7530   -1.6670 c3        1 MOL      0.293610
     62 C20         2.1970    6.2890   -1.6510 c         1 MOL      0.370349
     63 O10         3.3900    6.6050   -1.5360 o         1 MOL     -0.524851
     64 C21         1.6990    4.3400   -3.1080 c3        1 MOL      0.051552
     65 C22         1.2340    2.9180   -3.4320 c         1 MOL      0.537183
     66 O11         0.2280    2.4630   -2.7520 o         1 MOL     -0.618977
     67 O12         1.5710    2.3970   -4.5140 o         1 MOL     -0.618977
     68 H28         3.8720    4.3980   -1.3170 hn        1 MOL      0.317338
     69 H29         0.9140    4.4640   -1.2080 h1        1 MOL     -0.023065
     70 H30         2.5230    4.6340   -3.7620 hc        1 MOL     -0.012686
     71 H31         0.8790    4.9920   -3.3980 hc        1 MOL     -0.012686
     72 N7          1.2730    7.2200   -1.7110 n         1 MOL     -0.338195
     73 C23        -0.1860    7.1320   -1.8280 c3        1 MOL     -0.216289
     74 C24        -0.8890    6.6300   -0.5490 c         1 MOL      0.635773
     75 O13        -0.7270    7.1160    0.5980 o         1 MOL     -0.552013
     76 H32         1.6450    8.1610   -1.7350 hn        1 MOL      0.312676
     77 H33        -0.3990    6.4220   -2.6300 h1        1 MOL      0.124135
     78 H34        -0.6840    8.0910   -1.9880 h1        1 MOL      0.124135
     79 N8         -1.7350    5.5920   -0.7350 n         1 MOL     -0.462296
     80 C25        -2.4100    4.8320    0.3090 c3        1 MOL     -0.098964
     81 C26        -1.7830    3.4730    0.7940 c         1 MOL      0.896608
     82 O14        -1.4770    2.6340    0.0150 o         1 MOL     -0.826451
     83 C27        -3.8510    4.6200   -0.1380 c3        1 MOL      0.311056
     84 C28        -4.8450    4.0510    0.8740 c3        1 MOL     -0.247054
     85 O15        -3.8850    3.7590   -1.2920 oh        1 MOL     -0.617224
     86 H35        -1.7130    5.1580   -1.6550 hn        1 MOL      0.226677
     87 H36        -2.4680    5.3940    1.2460 h1        1 MOL      0.065833
     88 H37        -4.2440    5.5910   -0.4400 h1        1 MOL      0.050790
     89 H38        -3.1770    3.1170   -1.2340 ho        1 MOL      0.468333
     90 H39        -4.6590    3.0160    1.1440 hc        1 MOL      0.053043
     91 H40        -4.8980    4.6980    1.7490 hc        1 MOL      0.053043
     92 H41        -5.8660    3.9890    0.4930 hc        1 MOL      0.053043
     93 N9         -1.6990    3.3210    2.1070 n         1 MOL     -0.670224
     94 C29        -1.1940    2.2230    2.8900 c3        1 MOL      0.198184
     95 C30        -1.9430    0.8940    2.6390 c         1 MOL      0.394507
     96 O16        -2.3500    0.5860    1.5460 o         1 MOL     -0.359857
     97 C31         0.3630    1.9840    2.7850 c3        1 MOL      0.303794
     98 C32         1.1890    3.3490    2.7550 c3        1 MOL     -0.179091
     99 C33         0.8540    1.1210    3.9430 c3        1 MOL     -0.449781
    100 C34         0.9750    4.2990    3.9600 c3        1 MOL     -0.539355
    101 H42        -1.8000    4.1490    2.6790 hn        1 MOL      0.327311
    102 H43        -1.3670    2.6070    3.8990 h1        1 MOL      0.006223
    103 H44         0.5390    1.5150    1.8160 hc        1 MOL     -0.046290
    104 H45         0.9020    3.9680    1.9070 hc        1 MOL      0.114414
    105 H46         2.2680    3.1860    2.7080 hc        1 MOL      0.114414
    106 H47         1.9430    1.0870    3.8550 hc        1 MOL      0.106173
    107 H48         0.5980    1.5690    4.9040 hc        1 MOL      0.106173
    108 H49         0.5050    0.1170    3.6970 hc        1 MOL      0.106173
    109 H50         1.7860    5.0050    3.8250 hc        1 MOL      0.149566
    110 H51        -0.0590    4.6120    4.0340 hc        1 MOL      0.149566
    111 H52         1.4510    3.8470    4.8380 hc        1 MOL      0.149566
    112 N10        -2.1260    0.0780    3.6520 n         1 MOL     -0.456486
    113 C35        -2.6200   -1.3380    3.6010 c3        1 MOL     -0.249556
    114 C36        -4.0020   -1.5140    2.9490 c         1 MOL      0.540350
    115 O17        -4.4370   -2.6290    2.5580 o         1 MOL     -0.547761
    116 C37        -2.4890   -1.9900    4.9750 c3        1 MOL      0.625373
    117 C38        -3.5680   -1.6870    5.9940 c3        1 MOL     -0.477957
    118 O18        -1.2500   -1.7790    5.5140 oh        1 MOL     -0.630216
    119 H53        -1.6690    0.3200    4.5230 hn        1 MOL      0.288687
    120 H54        -1.9040   -1.9020    3.0000 h1        1 MOL      0.140521
    121 H55        -2.5730   -3.0490    4.6950 h1        1 MOL     -0.048771
    122 H56        -0.6550   -2.4150    5.1120 ho        1 MOL      0.390973
    123 H57        -3.3500   -0.6740    6.3430 hc        1 MOL      0.123842
    124 H58        -4.5260   -1.9600    5.5520 hc        1 MOL      0.123842
    125 H59        -3.4440   -2.4480    6.7540 hc        1 MOL      0.123842
    126 N11        -4.7600   -0.3950    2.8340 n         1 MOL     -0.362862
    127 C39        -6.1210   -0.4250    2.2910 c3        1 MOL     -0.075736
    128 C40        -6.0740   -0.7970    0.7920 c         1 MOL      0.519613
    129 O19        -5.5500   -0.0530   -0.0220 o         1 MOL     -0.538587
    130 C41        -6.7870    0.9560    2.4470 c3        1 MOL      0.411890
    131 C42        -8.3090    0.6450    2.4160 c3        1 MOL     -0.390187
    132 O20        -6.5430    1.4930    3.6790 oh        1 MOL     -0.591331
    133 H60        -4.3690    0.4490    3.2210 hn        1 MOL      0.225618
    134 H61        -6.7490   -1.1870    2.7440 h1        1 MOL      0.055272
    135 H62        -6.3920    1.7340    1.7780 h1        1 MOL     -0.002008
    136 H63        -5.6180    1.7550    3.7530 ho        1 MOL      0.370796
    137 H64        -8.6200    0.3340    1.4240 hc        1 MOL      0.110490
    138 H65        -8.6330    0.0420    3.2650 hc        1 MOL      0.110490
    139 H66        -8.8020    1.5810    2.6770 hc        1 MOL      0.110490
    140 N12        -6.6760   -1.9390    0.3980 n         1 MOL     -0.214828
    141 C43        -6.8950   -2.4250   -0.9950 c3        1 MOL     -0.042154
    142 C44        -5.6090   -2.4080   -1.7470 c         1 MOL      0.664778
    143 O21        -5.5300   -1.6550   -2.6500 o         1 MOL     -0.546427
    144 C45        -8.0400   -1.5900   -1.6030 c3        1 MOL     -0.180595
    145 C46        -9.3540   -1.7730   -0.7990 c3        1 MOL      0.025326
    146 C47       -10.3670   -0.7650   -1.3780 c3        1 MOL      0.017535
    147 C48       -11.7700   -0.8620   -0.8300 c3        1 MOL      0.061165
    148 N13       -12.4410   -2.1210   -1.0570 n4        1 MOL     -0.222088
    149 H67        -6.9980   -2.5640    1.1280 hn        1 MOL      0.202839
    150 H68        -7.1940   -3.4680   -0.9350 h1        1 MOL      0.057049
    151 H69        -8.2080   -1.8470   -2.6440 hc        1 MOL      0.088620
    152 H70        -7.7670   -0.5340   -1.7080 hc        1 MOL      0.088620
    153 H71        -9.2050   -1.4920    0.2440 hc        1 MOL     -0.020877
    154 H72        -9.6680   -2.8110   -0.9330 hc        1 MOL     -0.020877
    155 H73       -10.3540   -0.8880   -2.4580 hc        1 MOL      0.035100
    156 H74       -10.0000    0.2430   -1.2380 hc        1 MOL      0.035100
    157 H75       -12.2960   -0.0710   -1.3590 hx        1 MOL      0.040806
    158 H76       -11.7450   -0.5490    0.2170 hx        1 MOL      0.040806
    159 H77       -13.4160   -1.9000   -0.9430 hn        1 MOL      0.227796
    160 H78       -12.2420   -2.4500   -1.9990 hn        1 MOL      0.227796
    161 H79       -12.0840   -2.8080   -0.4080 hn        1 MOL      0.227796
    162 N14        -4.6480   -3.1820   -1.3930 n         1 MOL     -0.556581
    163 C49        -3.3010   -3.1450   -1.9650 c3        1 MOL      0.465289
    164 C50        -2.3030   -2.7250   -0.9040 c         1 MOL      0.250800
    165 O22        -1.9940   -1.5650   -0.8620 o         1 MOL     -0.577461
    166 C51        -2.8660   -4.4120   -2.7370 c3        1 MOL     -0.382722
    167 C52        -3.6360   -4.4030   -4.0490 c3        1 MOL     -0.168110
    168 C53        -3.4470   -5.6570   -4.8890 c         1 MOL      0.755625
    169 O23        -2.4400   -5.6390   -5.6090 o         1 MOL     -0.655091
    170 O24        -4.3130   -6.5290   -4.9770 o         1 MOL     -0.655091
    171 H80        -4.7330   -3.7640   -0.5680 hn        1 MOL      0.274335
    172 H81        -3.2570   -2.3370   -2.6970 h1        1 MOL      0.031430
    173 H82        -2.9780   -5.3790   -2.2420 hc        1 MOL      0.127548
    174 H83        -1.7870   -4.3620   -2.9040 hc        1 MOL      0.127548
    175 H84        -3.3430   -3.4720   -4.5290 hc        1 MOL      0.029192
    176 H85        -4.6820   -4.2110   -3.8360 hc        1 MOL      0.029192
    177 N15        -1.8010   -3.4830    0.0770 n         1 MOL     -0.190117
    178 C54        -2.0650   -4.8980    0.3740 c3        1 MOL     -0.063674
    179 H86        -1.4810   -5.5250   -0.2980 h1        1 MOL      0.046622
    180 H87        -1.7840   -5.1120    1.4050 h1        1 MOL      0.046622
    181 H88        -3.1260   -5.1070    0.2360 h1        1 MOL      0.046622
    182 H89        -1.0340   -3.0490    0.5700 hn        1 MOL      0.253005
    183 Ca1        -0.4220    0.6610   -1.2000 Ca        1 MOL      1.796902
    184 O25        -1.3810   -0.1890   -3.7100 oh        1 MOL     -0.933692
    185 H90        -0.7000   -0.6070   -4.2380 ho        1 MOL      0.456844
    186 H91        -2.1670   -0.2420   -4.2540 ho        1 MOL      0.456844
    187 O26        -3.1200    1.0840   -1.5050 oh        1 MOL     -0.933692
    188 H92        -3.2530    0.4140   -0.8350 ho        1 MOL      0.456844
    189 H93        -3.9360    1.0990   -1.9970 ho        1 MOL      0.456844
    190 O27         1.3260   -0.7510   -2.3890 oh        1 MOL     -0.933692
    191 H94         1.6860   -0.9560   -3.2520 ho        1 MOL      0.456844
    192 H95         2.0490   -0.9240   -1.7750 ho        1 MOL      0.456844
@<TRIPOS>BOND
     1    1    2 1   
     2    1    4 1   
     3    1    5 1   
     4    1    6 1   
     5    2    3 2   
     6    2    7 1   
     7    7    8 1   
     8    7   15 1   
     9    8    9 1   
    10    8   11 1   
    11    8   16 1   
    12    9   10 2   
    13    9   19 1   
    14   11   12 1   
    15   11   17 1   
    16   11   18 1   
    17   12   13 1   
    18   12   14 1   
    19   19   20 1   
    20   19   28 1   
    21   20   21 1   
    22   20   23 1   
    23   20   29 1   
    24   21   22 2   
    25   21   41 1   
    26   23   24 1   
    27   23   30 1   
    28   23   31 1   
    29   24   25 1   
    30   24   32 1   
    31   24   33 1   
    32   25   26 1   
    33   25   34 1   
    34   25   35 1   
    35   26   27 1   
    36   26   36 1   
    37   26   37 1   
    38   27   38 1   
    39   27   39 1   
    40   27   40 1   
    41   41   42 1   
    42   41   49 1   
    43   42   43 1   
    44   42   45 1   
    45   42   50 1   
    46   43   44 2   
    47   43   53 1   
    48   45   46 1   
    49   45   51 1   
    50   45   52 1   
    51   46   47 1   
    52   46   48 1   
    53   53   54 1   
    54   53   57 1   
    55   54   55 1   
    56   54   58 1   
    57   54   59 1   
    58   55   56 2   
    59   55   60 1   
    60   60   61 1   
    61   60   68 1   
    62   61   62 1   
    63   61   64 1   
    64   61   69 1   
    65   62   63 2   
    66   62   72 1   
    67   64   65 1   
    68   64   70 1   
    69   64   71 1   
    70   65   66 1   
    71   65   67 1   
    72   72   73 1   
    73   72   76 1   
    74   73   74 1   
    75   73   77 1   
    76   73   78 1   
    77   74   75 2   
    78   74   79 1   
    79   79   80 1   
    80   79   86 1   
    81   80   81 1   
    82   80   83 1   
    83   80   87 1   
    84   81   82 2   
    85   81   93 1   
    86   83   84 1   
    87   83   85 1   
    88   83   88 1   
    89   84   90 1   
    90   84   91 1   
    91   84   92 1   
    92   85   89 1   
    93   93   94 1   
    94   93  101 1   
    95   94   95 1   
    96   94   97 1   
    97   94  102 1   
    98   95   96 2   
    99   95  112 1   
   100   97   98 1   
   101   97   99 1   
   102   97  103 1   
   103   98  100 1   
   104   98  104 1   
   105   98  105 1   
   106   99  106 1   
   107   99  107 1   
   108   99  108 1   
   109  100  109 1   
   110  100  110 1   
   111  100  111 1   
   112  112  113 1   
   113  112  119 1   
   114  113  114 1   
   115  113  116 1   
   116  113  120 1   
   117  114  115 2   
   118  114  126 1   
   119  116  117 1   
   120  116  118 1   
   121  116  121 1   
   122  117  123 1   
   123  117  124 1   
   124  117  125 1   
   125  118  122 1   
   126  126  127 1   
   127  126  133 1   
   128  127  128 1   
   129  127  130 1   
   130  127  134 1   
   131  128  129 2   
   132  128  140 1   
   133  130  131 1   
   134  130  132 1   
   135  130  135 1   
   136  131  137 1   
   137  131  138 1   
   138  131  139 1   
   139  132  136 1   
   140  140  141 1   
   141  140  149 1   
   142  141  142 1   
   143  141  144 1   
   144  141  150 1   
   145  142  143 2   
   146  142  162 1   
   147  144  145 1   
   148  144  151 1   
   149  144  152 1   
   150  145  146 1   
   151  145  153 1   
   152  145  154 1   
   153  146  147 1   
   154  146  155 1   
   155  146  156 1   
   156  147  148 1   
   157  147  157 1   
   158  147  158 1   
   159  148  159 1   
   160  148  160 1   
   161  148  161 1   
   162  162  163 1   
   163  162  171 1   
   164  163  164 1   
   165  163  166 1   
   166  163  172 1   
   167  164  165 2   
   168  164  177 1   
   169  166  167 1   
   170  166  173 1   
   171  166  174 1   
   172  167  168 1   
   173  167  175 1   
   174  167  176 1   
   175  168  169 1   
   176  168  170 1   
   177  177  178 1   
   178  177  182 1   
   179  178  179 1   
   180  178  180 1   
   181  178  181 1   
   182  184  185 1   
   183  184  186 1   
   184  187  188 1   
   185  187  189 1   
   186  190  191 1   
   187  190  192 1   
@<TRIPOS>SUBSTRUCTURE
     1 MOL         1 TEMP              0 ****  ****    0 ROOT
