@<TRIPOS>MOLECULE
MOL
  188   182     1     0     0
SMALL
resp


@<TRIPOS>ATOM
      1 C1          6.4010    4.7170    1.2910 c3        1 MOL     -0.337795
      2 C2          7.4560    3.6100    1.3760 c         1 MOL      0.757940
      3 O1          7.1690    2.6990    2.1690 o         1 MOL     -0.592844
      4 H1          5.8170    4.7330    2.2110 hc        1 MOL      0.081076
      5 H2          6.8930    5.6800    1.1570 hc        1 MOL      0.081076
      6 H3          5.7390    4.5250    0.4460 hc        1 MOL      0.081076
      7 N1          8.5900    3.6270    0.6500 n         1 MOL     -0.758941
      8 C3          9.5930    2.5930    0.7460 c3        1 MOL      0.443708
      9 C4          9.0770    1.1820    0.2160 c         1 MOL      0.427635
     10 O2          8.8200    1.0020   -0.9620 o         1 MOL     -0.564314
     11 C5         10.9370    3.0020    0.1240 c3        1 MOL     -0.263241
     12 C6         12.0180    2.0610    0.6890 c         1 MOL      0.763484
     13 O3         12.0060    1.8360    1.9360 o         1 MOL     -0.733171
     14 O4         12.8040    1.6170   -0.1680 o         1 MOL     -0.733171
     15 H4          8.7280    4.2870   -0.1010 hn        1 MOL      0.338178
     16 H5          9.7710    2.5830    1.8210 h1        1 MOL      0.006894
     17 H6         11.2100    3.9610    0.5670 hc        1 MOL      0.043632
     18 H7         10.7970    2.9550   -0.9530 hc        1 MOL      0.043632
     19 N2          9.1010    0.1810    1.1030 n         1 MOL     -0.231672
     20 C7          8.5390   -1.1630    0.8130 c3        1 MOL      0.041115
     21 C8          7.0700   -1.2840    1.3850 c         1 MOL      0.437060
     22 O5          6.7930   -0.8510    2.5410 o         1 MOL     -0.502996
     23 C9          9.4610   -2.2310    1.4340 c3        1 MOL     -0.072544
     24 C10        10.6930   -2.6710    0.6460 c3        1 MOL     -0.016684
     25 C11        11.7420   -1.6060    0.3320 c3        1 MOL      0.137110
     26 C12        13.1150   -2.1960   -0.0440 c3        1 MOL      0.081832
     27 N3         14.0420   -1.1600   -0.5400 n4        1 MOL     -0.344412
     28 H8          9.4090    0.4510    2.0290 hn        1 MOL      0.215941
     29 H9          8.5760   -1.3600   -0.2540 h1        1 MOL      0.070204
     30 H10         8.8850   -3.1600    1.5090 hc        1 MOL      0.037216
     31 H11         9.7150   -1.8910    2.4360 hc        1 MOL      0.037216
     32 H12        10.3330   -3.0970   -0.2970 hc        1 MOL     -0.004456
     33 H13        11.1810   -3.5000    1.1590 hc        1 MOL     -0.004456
     34 H14        11.9350   -0.9920    1.2090 hc        1 MOL     -0.002852
     35 H15        11.4060   -0.9730   -0.4920 hc        1 MOL     -0.002852
     36 H16        12.9920   -2.9860   -0.7880 hx        1 MOL      0.033588
     37 H17        13.5190   -2.6710    0.8460 hx        1 MOL      0.033588
     38 H18        14.9460   -1.4580   -0.2160 hn        1 MOL      0.308201
     39 H19        14.0110   -1.2200   -1.5540 hn        1 MOL      0.308201
     40 H20        13.9020   -0.2390   -0.1560 hn        1 MOL      0.308201
     41 N4          6.1420   -1.7750    0.5700 n         1 MOL     -0.375580
     42 C13         4.6960   -1.9540    0.9390 c3        1 MOL      0.000629
     43 C14         4.1740   -3.2710    0.2650 c         1 MOL      0.460512
     44 O6          4.4610   -3.5520   -0.9330 o         1 MOL     -0.493325
     45 C15         3.9430   -0.6990    0.5040 c3        1 MOL     -0.071000
     46 C16         2.4430   -0.6630    0.8890 c         1 MOL      0.446729
     47 O7          2.0030   -0.1170    1.8790 o         1 MOL     -0.585783
     48 O8          1.7040   -1.3770    0.1880 o         1 MOL     -0.585783
     49 H21         6.4540   -2.0750   -0.3390 hn        1 MOL      0.251089
     50 H22         4.6830   -2.0130    2.0320 h1        1 MOL      0.078293
     51 H23         3.9150   -0.5560   -0.5810 hc        1 MOL      0.073425
     52 H24         4.4410    0.1990    0.8720 hc        1 MOL      0.073425
     53 N5          3.2170   -3.9140    0.8830 n         1 MOL     -0.339707
     54 C17         2.5810   -5.2150    0.4200 c3        1 MOL     -0.147568
     55 C18         1.6160   -5.0720   -0.7790 c         1 MOL      0.535610
     56 O9          1.3190   -6.0440   -1.4830 o         1 MOL     -0.551671
     57 H25         2.9730   -3.5750    1.8020 hn        1 MOL      0.278270
     58 H26         1.9760   -5.6170    1.2340 h1        1 MOL      0.114110
     59 H27         3.3670   -5.9010    0.1220 h1        1 MOL      0.114110
     60 N6          1.0570   -3.8850   -1.0660 n         1 MOL     -0.187137
     61 C19         0.3180   -3.5400   -2.2980 c3        1 MOL     -0.049023
     62 C20         0.7980   -2.1930   -2.8370 c         1 MOL      0.193204
     63 O10         0.0200   -1.4500   -3.4460 o         1 MOL     -0.255374
     64 C21        -1.1420   -3.7750   -2.2010 c3        1 MOL     -0.278137
     65 C22        -1.9430   -2.9200   -1.2180 c         1 MOL      0.567926
     66 N7         -3.1610   -3.2440   -0.8330 n         1 MOL     -0.752192
     67 O11        -1.3810   -1.9020   -0.7160 o         1 MOL     -0.647030
     68 H28         1.3300   -3.1430   -0.4360 hn        1 MOL      0.050275
     69 H29         0.6250   -4.3080   -3.0100 h1        1 MOL      0.133210
     70 H30        -1.2880   -4.8370   -2.0110 hc        1 MOL      0.154229
     71 H31        -1.6150   -3.6510   -3.1750 hc        1 MOL      0.154229
     72 H32        -3.5560   -4.0870   -1.2140 hn        1 MOL      0.363876
     73 H33        -3.6120   -2.6150   -0.1860 hn        1 MOL      0.363876
     74 N8          2.0860   -1.8340   -2.7100 n         1 MOL     -0.017143
     75 C23         2.7610   -0.7590   -3.3040 c3        1 MOL     -0.327238
     76 C24         2.2340    0.6280   -3.0850 c         1 MOL      0.651606
     77 O12         2.5020    1.5680   -3.8330 o         1 MOL     -0.552931
     78 H34         2.6730   -2.4500   -2.1710 hn        1 MOL      0.185139
     79 H35         2.6310   -0.8140   -4.3790 h1        1 MOL      0.124020
     80 H36         3.8320   -0.7570   -3.0650 h1        1 MOL      0.124020
     81 N9          1.5650    0.7820   -1.9730 n         1 MOL     -0.513623
     82 C25         0.6990    1.9260   -1.6860 c3        1 MOL      0.065575
     83 C26        -0.6560    1.5200   -0.9550 c         1 MOL      0.460654
     84 O13        -0.6090    0.7020   -0.0710 o         1 MOL     -0.635139
     85 C27         1.4820    3.0590   -0.9220 c3        1 MOL     -0.150393
     86 C28         0.7030    4.2560   -0.5280 ca        1 MOL     -0.011981
     87 C29         0.1910    5.1410   -1.5330 ca        1 MOL     -0.100952
     88 C30         0.4670    4.4780    0.8270 ca        1 MOL     -0.100952
     89 C31        -0.5140    6.3070   -1.2050 ca        1 MOL     -0.335745
     90 C32        -0.2270    5.6760    1.2100 ca        1 MOL     -0.335745
     91 C33        -0.7370    6.5530    0.2110 ca        1 MOL      0.430033
     92 O14        -1.3980    7.6510    0.6190 oh        1 MOL     -0.506839
     93 H37         1.4310   -0.1020   -1.5020 hn        1 MOL      0.374689
     94 H38         0.4130    2.3910   -2.6300 h1        1 MOL      0.026672
     95 H39         2.3630    3.3480   -1.5070 hc        1 MOL      0.100834
     96 H40         1.7590    2.5950    0.0270 hc        1 MOL      0.100834
     97 H41         0.5060    4.9100   -2.5390 ha        1 MOL      0.136359
     98 H42         0.8830    3.8080    1.5740 ha        1 MOL      0.136359
     99 H43        -0.8380    6.9850   -1.9740 ha        1 MOL      0.175422
    100 H44        -0.5890    5.8290    2.2130 ha        1 MOL      0.175422
    101 H45        -1.3550    7.8710    1.5520 ho        1 MOL      0.380681
    102 N10        -1.7520    2.1870   -1.2840 n         1 MOL     -0.131585
    103 C34        -3.0810    1.8460   -0.7810 c3        1 MOL      0.001764
    104 C35        -3.7340    0.6560   -1.5630 c         1 MOL     -0.012325
    105 O15        -4.3920   -0.1550   -0.9830 o         1 MOL     -0.148098
    106 C36        -3.9960    3.0610   -0.7550 c3        1 MOL      0.122591
    107 C37        -3.4550    4.1170    0.1950 c3        1 MOL     -0.041110
    108 C38        -5.5100    2.7730   -0.4220 c3        1 MOL     -0.171327
    109 C39        -4.1070    5.4750    0.0980 c3        1 MOL     -0.046997
    110 H46        -1.6620    2.8680   -2.0230 hn        1 MOL      0.229375
    111 H47        -2.9000    1.5220    0.2510 h1        1 MOL      0.073232
    112 H48        -3.9580    3.5330   -1.7350 hc        1 MOL     -0.015795
    113 H49        -2.3950    4.2570    0.0100 hc        1 MOL     -0.012880
    114 H50        -3.5690    3.7840    1.2310 hc        1 MOL     -0.012880
    115 H51        -5.9420    1.9840   -1.0400 hc        1 MOL      0.044179
    116 H52        -5.5670    2.3110    0.5610 hc        1 MOL      0.044179
    117 H53        -6.1770    3.6260   -0.5690 hc        1 MOL      0.044179
    118 H54        -3.7690    6.1420    0.8920 hc        1 MOL      0.022774
    119 H55        -3.8600    5.9130   -0.8650 hc        1 MOL      0.022774
    120 H56        -5.1940    5.3860    0.0880 hc        1 MOL      0.022774
    121 N11        -3.3110    0.5360   -2.8480 n         1 MOL     -0.034632
    122 C40        -3.5850   -0.7210   -3.6490 c3        1 MOL      0.081154
    123 C41        -5.1110   -0.9050   -3.7990 c         1 MOL      0.251764
    124 O16        -5.6180   -2.0230   -3.6080 o         1 MOL     -0.452626
    125 C42        -2.8680   -0.7060   -4.9940 c3        1 MOL      0.161123
    126 O17        -1.6090   -0.0960   -5.0510 oh        1 MOL     -0.529609
    127 H57        -2.6770    1.2590   -3.1480 hn        1 MOL      0.124081
    128 H58        -3.1800   -1.5940   -3.1310 h1        1 MOL      0.050172
    129 H59        -3.6010   -0.1640   -5.5960 h1        1 MOL      0.024931
    130 H60        -2.7630   -1.7560   -5.2810 h1        1 MOL      0.024931
    131 H61        -0.9730   -0.5360   -4.4660 ho        1 MOL      0.258872
    132 N12        -5.9580    0.1810   -3.8490 n         1 MOL     -0.205346
    133 C43        -7.3970    0.0830   -3.8330 c3        1 MOL      0.042378
    134 C44        -7.9790   -0.5330   -2.5310 c         1 MOL      0.543395
    135 O18        -9.1780   -0.8090   -2.5970 o         1 MOL     -0.549352
    136 C45        -7.9170   -0.5620   -5.1950 c3        1 MOL     -0.202292
    137 H62        -5.5590    1.0690   -4.1190 hn        1 MOL      0.209808
    138 H63        -7.7910    1.1000   -3.8270 h1        1 MOL      0.079244
    139 H64        -7.5720   -0.0290   -6.0830 hc        1 MOL      0.072703
    140 H65        -7.5740   -1.5880   -5.2960 hc        1 MOL      0.072703
    141 H66        -8.9950   -0.5520   -5.3640 hc        1 MOL      0.072703
    142 N13        -7.2440   -0.7210   -1.4120 n         1 MOL     -0.368279
    143 C46        -7.7960   -1.4390   -0.3070 c3        1 MOL      0.273018
    144 C47        -8.1750   -0.5520    0.8410 c         1 MOL      0.583151
    145 O19        -7.6380    0.5680    0.9460 o         1 MOL     -0.466254
    146 C48        -6.7450   -2.5040    0.1040 c3        1 MOL     -0.298549
    147 H67        -6.2970   -0.3760   -1.3220 hn        1 MOL      0.042428
    148 H68        -8.6860   -2.0060   -0.5760 h1        1 MOL     -0.010020
    149 H69        -7.2190   -3.1860    0.8070 hc        1 MOL      0.077641
    150 H70        -6.4790   -3.0990   -0.7720 hc        1 MOL      0.077641
    151 H71        -5.9060   -1.9100    0.4430 hc        1 MOL      0.077641
    152 N14        -9.1920   -0.9210    1.6210 n         1 MOL     -0.622150
    153 C49        -9.8340   -0.2120    2.7270 c3        1 MOL     -0.086573
    154 C50       -10.3010    1.2300    2.3550 c         1 MOL      0.474816
    155 O20       -10.4100    2.0880    3.2030 o         1 MOL     -0.475279
    156 C51        -9.0590   -0.2630    3.9960 c3        1 MOL      0.433651
    157 C52        -8.7750   -1.7100    4.4760 c3        1 MOL     -0.196774
    158 C53        -7.9520   -1.8750    5.7130 c         1 MOL      0.656934
    159 O21        -6.7150   -1.5780    5.6740 o         1 MOL     -0.682584
    160 O22        -8.4450   -2.2790    6.8060 o         1 MOL     -0.682584
    161 H72        -9.5250   -1.8730    1.5140 hn        1 MOL      0.342758
    162 H73       -10.7880   -0.7050    2.9010 h1        1 MOL      0.094993
    163 H74        -9.5430    0.4030    4.7210 hc        1 MOL     -0.089959
    164 H75        -8.0600    0.1470    3.8850 hc        1 MOL     -0.089959
    165 H76        -8.2590   -2.2780    3.7000 hc        1 MOL     -0.013096
    166 H77        -9.7680   -2.1250    4.6630 hc        1 MOL     -0.013096
    167 N15       -10.6990    1.5000    1.0760 n         1 MOL     -0.338854
    168 C54       -10.9280    2.9100    0.5790 c3        1 MOL     -0.209606
    169 H78       -11.8510    3.3000    1.0100 h1        1 MOL      0.110735
    170 H79       -10.0920    3.5430    0.8780 h1        1 MOL      0.110735
    171 H80       -11.0090    2.9040   -0.5080 h1        1 MOL      0.110735
    172 H81       -10.4900    0.8060    0.3750 hn        1 MOL      0.234662
    173 Ca1        -0.6540   -1.2120    1.7410 Ca        1 MOL      1.824448
    174 O23        -2.2850   -2.3160    3.7270 oh        1 MOL     -0.860666
    175 H82        -2.0930   -2.9270    4.4440 ho        1 MOL      0.419127
    176 H83        -3.2450   -2.2260    3.7400 ho        1 MOL      0.419127
    177 O24        -0.6690    0.6640    3.6080 oh        1 MOL     -0.860666
    178 O25        -3.3370   -0.6530    1.3660 oh        1 MOL     -0.860666
    179 H84        -1.3730    1.3130    3.6600 ho        1 MOL      0.419127
    180 H85        -4.0510   -0.6550    2.0000 ho        1 MOL      0.419127
    181 H86         0.0080    1.0070    4.1790 ho        1 MOL      0.419127
    182 H87        -3.7480   -0.4450    0.5320 ho        1 MOL      0.419127
    183 O26        -0.2780   -3.7700    1.9250 oh        1 MOL     -0.860666
    184 H88         0.3790   -4.1630    2.4970 ho        1 MOL      0.419127
    185 H89        -1.0150   -4.3900    1.9390 ho        1 MOL      0.419127
    186 O27         0.7820   -1.8570    4.0090 oh        1 MOL     -0.860666
    187 H90         0.8380   -2.6180    4.5910 ho        1 MOL      0.419127
    188 H91         1.0300   -1.1210    4.5710 ho        1 MOL      0.419127
@<TRIPOS>BOND
     1    1    2 1   
     2    1    4 1   
     3    1    5 1   
     4    1    6 1   
     5    2    3 2   
     6    2    7 1   
     7    7    8 1   
     8    7   15 1   
     9    8    9 1   
    10    8   11 1   
    11    8   16 1   
    12    9   10 2   
    13    9   19 1   
    14   11   12 1   
    15   11   17 1   
    16   11   18 1   
    17   12   13 1   
    18   12   14 1   
    19   19   20 1   
    20   19   28 1   
    21   20   21 1   
    22   20   23 1   
    23   20   29 1   
    24   21   22 2   
    25   21   41 1   
    26   23   24 1   
    27   23   30 1   
    28   23   31 1   
    29   24   25 1   
    30   24   32 1   
    31   24   33 1   
    32   25   26 1   
    33   25   34 1   
    34   25   35 1   
    35   26   27 1   
    36   26   36 1   
    37   26   37 1   
    38   27   38 1   
    39   27   39 1   
    40   27   40 1   
    41   41   42 1   
    42   41   49 1   
    43   42   43 1   
    44   42   45 1   
    45   42   50 1   
    46   43   44 2   
    47   43   53 1   
    48   45   46 1   
    49   45   51 1   
    50   45   52 1   
    51   46   47 1   
    52   46   48 1   
    53   53   54 1   
    54   53   57 1   
    55   54   55 1   
    56   54   58 1   
    57   54   59 1   
    58   55   56 2   
    59   55   60 1   
    60   60   61 1   
    61   60   68 1   
    62   61   62 1   
    63   61   64 1   
    64   61   69 1   
    65   62   63 2   
    66   62   74 1   
    67   64   65 1   
    68   64   70 1   
    69   64   71 1   
    70   65   66 1   
    71   65   67 2   
    72   66   72 1   
    73   66   73 1   
    74   74   75 1   
    75   74   78 1   
    76   75   76 1   
    77   75   79 1   
    78   75   80 1   
    79   76   77 2   
    80   76   81 1   
    81   81   82 1   
    82   81   93 1   
    83   82   83 1   
    84   82   85 1   
    85   82   94 1   
    86   83   84 2   
    87   83  102 1   
    88   85   86 1   
    89   85   95 1   
    90   85   96 1   
    91   86   87 ar  
    92   86   88 ar  
    93   87   89 ar  
    94   87   97 1   
    95   88   90 ar  
    96   88   98 1   
    97   89   91 ar  
    98   89   99 1   
    99   90   91 ar  
   100   90  100 1   
   101   91   92 1   
   102   92  101 1   
   103  102  103 1   
   104  102  110 1   
   105  103  104 1   
   106  103  106 1   
   107  103  111 1   
   108  104  105 2   
   109  104  121 1   
   110  106  107 1   
   111  106  108 1   
   112  106  112 1   
   113  107  109 1   
   114  107  113 1   
   115  107  114 1   
   116  108  115 1   
   117  108  116 1   
   118  108  117 1   
   119  109  118 1   
   120  109  119 1   
   121  109  120 1   
   122  121  122 1   
   123  121  127 1   
   124  122  123 1   
   125  122  125 1   
   126  122  128 1   
   127  123  124 2   
   128  123  132 1   
   129  125  126 1   
   130  125  129 1   
   131  125  130 1   
   132  126  131 1   
   133  132  133 1   
   134  132  137 1   
   135  133  134 1   
   136  133  136 1   
   137  133  138 1   
   138  134  135 2   
   139  134  142 1   
   140  136  139 1   
   141  136  140 1   
   142  136  141 1   
   143  142  143 1   
   144  142  147 1   
   145  143  144 1   
   146  143  146 1   
   147  143  148 1   
   148  144  145 2   
   149  144  152 1   
   150  146  149 1   
   151  146  150 1   
   152  146  151 1   
   153  152  153 1   
   154  152  161 1   
   155  153  154 1   
   156  153  156 1   
   157  153  162 1   
   158  154  155 2   
   159  154  167 1   
   160  156  157 1   
   161  156  163 1   
   162  156  164 1   
   163  157  158 1   
   164  157  165 1   
   165  157  166 1   
   166  158  159 1   
   167  158  160 1   
   168  167  168 1   
   169  167  172 1   
   170  168  169 1   
   171  168  170 1   
   172  168  171 1   
   173  174  175 1   
   174  174  176 1   
   175  177  179 1   
   176  177  181 1   
   177  178  180 1   
   178  178  182 1   
   179  183  184 1   
   180  183  185 1   
   181  186  187 1   
   182  186  188 1   
@<TRIPOS>SUBSTRUCTURE
     1 MOL         1 TEMP              0 ****  ****    0 ROOT
