@<TRIPOS>MOLECULE
MOL
  182   178     1     0     0
SMALL
resp


@<TRIPOS>ATOM
      1 C1          1.1340   -3.5880    6.4770 c3        1 MOL     -0.322892
      2 C2          1.1940   -3.2550    4.9420 c         1 MOL      0.724321
      3 O1          0.2840   -3.4400    4.1480 o         1 MOL     -0.584896
      4 H1          0.8050   -2.7060    7.0270 hc        1 MOL      0.098875
      5 H2          0.4300   -4.4030    6.6460 hc        1 MOL      0.098875
      6 H3          2.1240   -3.8830    6.8240 hc        1 MOL      0.098875
      7 N1          2.3590   -2.8310    4.4090 n         1 MOL     -0.597543
      8 C3          2.5480   -2.6600    2.9750 c3        1 MOL      0.050850
      9 C4          2.8110   -3.9790    2.2210 c         1 MOL      0.615155
     10 O2          3.2540   -4.9560    2.7950 o         1 MOL     -0.582818
     11 C5          3.6430   -1.5370    2.8170 c3        1 MOL     -0.139810
     12 C6          3.6170   -0.9190    1.4370 c         1 MOL      0.492820
     13 O3          4.2280    0.1950    1.2740 o         1 MOL     -0.642928
     14 O4          3.0640   -1.4920    0.4750 o         1 MOL     -0.642928
     15 H4          3.1180   -2.6150    5.0370 hn        1 MOL      0.323328
     16 H5          1.5950   -2.3950    2.5210 h1        1 MOL      0.075692
     17 H6          4.6430   -1.9600    2.9040 hc        1 MOL      0.069881
     18 H7          3.4510   -0.7590    3.5550 hc        1 MOL      0.069881
     19 N2          2.5400   -4.0550    0.9380 n         1 MOL     -0.154116
     20 C7          2.6560   -5.2020    0.0160 c3        1 MOL     -0.054664
     21 C8          3.7450   -5.0790   -1.0050 c         1 MOL      0.575723
     22 O5          4.2560   -6.0930   -1.4520 o         1 MOL     -0.592262
     23 C9          1.2500   -5.3640   -0.5670 c3        1 MOL      0.023367
     24 C10         1.2280   -6.7710   -1.2360 c3        1 MOL      0.017009
     25 C11        -0.0570   -6.9670   -2.0100 c3        1 MOL     -0.092404
     26 C12         0.0320   -8.4080   -2.5770 c3        1 MOL      0.184832
     27 N3         -1.1440   -8.7120   -3.3880 n4        1 MOL     -0.326069
     28 H8          2.1580   -3.1990    0.5520 hn        1 MOL      0.048350
     29 H9          2.9780   -6.0480    0.6210 h1        1 MOL      0.078673
     30 H10         1.0160   -4.6540   -1.3520 hc        1 MOL      0.004780
     31 H11         0.6490   -5.3030    0.3350 hc        1 MOL      0.004780
     32 H12         1.2700   -7.5510   -0.4750 hc        1 MOL      0.038872
     33 H13         2.0160   -6.8500   -1.9930 hc        1 MOL      0.038872
     34 H14        -0.0210   -6.2560   -2.8290 hc        1 MOL      0.027974
     35 H15        -0.9300   -6.8900   -1.3520 hc        1 MOL      0.027974
     36 H16         0.2500   -9.0790   -1.7570 hx        1 MOL      0.036852
     37 H17         0.9740   -8.4340   -3.1260 hx        1 MOL      0.036852
     38 H18        -0.9550   -9.4340   -4.0670 hn        1 MOL      0.286790
     39 H19        -1.9410   -8.9730   -2.8290 hn        1 MOL      0.286790
     40 H20        -1.4880   -7.9130   -3.8960 hn        1 MOL      0.286790
     41 N4          4.1170   -3.8120   -1.2700 n         1 MOL     -0.104031
     42 C13         5.2480   -3.4590   -2.1450 c3        1 MOL     -0.048819
     43 C14         6.4520   -2.8120   -1.3900 c         1 MOL      0.432847
     44 O6          7.5690   -2.8310   -1.8900 o         1 MOL     -0.520216
     45 C15         4.8180   -2.4710   -3.2420 c3        1 MOL     -0.153868
     46 C16         3.9880   -1.3150   -2.6830 c         1 MOL      0.671571
     47 O7          2.8160   -1.1160   -3.0430 o         1 MOL     -0.676715
     48 O8          4.5410   -0.5560   -1.8550 o         1 MOL     -0.676715
     49 H21         3.5910   -3.1400   -0.7410 hn        1 MOL     -0.106018
     50 H22         5.5770   -4.3740   -2.6330 h1        1 MOL      0.122671
     51 H23         4.1910   -3.0120   -3.9480 hc        1 MOL      0.056553
     52 H24         5.6700   -2.0800   -3.8020 hc        1 MOL      0.056553
     53 N5          6.2300   -2.1550   -0.2020 n         1 MOL     -0.195922
     54 C17         7.2460   -1.6130    0.6670 c3        1 MOL     -0.252215
     55 C18         7.4640   -0.0870    0.3780 c         1 MOL      0.498191
     56 O9          8.4260    0.4420    0.8480 o         1 MOL     -0.536485
     57 H25         5.2690   -2.0430    0.0860 hn        1 MOL      0.189854
     58 H26         8.1880   -2.1460    0.5590 h1        1 MOL      0.141186
     59 H27         6.8110   -1.7390    1.6620 h1        1 MOL      0.141186
     60 N6          6.6230    0.5240   -0.4280 n         1 MOL      0.015530
     61 C19         6.7310    1.9100   -0.8720 c3        1 MOL     -0.172703
     62 C20         5.5510    2.9030   -0.7930 c         1 MOL      0.563830
     63 O10         4.4290    2.5240   -0.8230 o         1 MOL     -0.521542
     64 C21         7.2240    1.7880   -2.3600 c3        1 MOL      0.104029
     65 C22         8.4620    1.0230   -2.6440 c         1 MOL      0.548681
     66 N7          8.4560   -0.2720   -2.5590 n         1 MOL     -0.741413
     67 O11         9.5120    1.6140   -2.7050 o         1 MOL     -0.567969
     68 H28         5.7760    0.0110   -0.6300 hn        1 MOL      0.112125
     69 H29         7.5620    2.3210   -0.3000 h1        1 MOL      0.053261
     70 H30         7.2660    2.7340   -2.8870 hc        1 MOL     -0.036391
     71 H31         6.4800    1.1830   -2.8920 hc        1 MOL     -0.036391
     72 H32         7.6830   -0.8710   -2.2920 hn        1 MOL      0.360025
     73 H33         9.3760   -0.6750   -2.6830 hn        1 MOL      0.360025
     74 N8          5.9050    4.2220   -0.8320 n         1 MOL     -0.331079
     75 C23         5.0060    5.4310   -0.8400 c3        1 MOL     -0.372114
     76 C24         4.0070    5.3620    0.3710 c         1 MOL      0.739374
     77 O12         4.2990    5.5800    1.5320 o         1 MOL     -0.539438
     78 H34         6.8740    4.5110   -0.7970 hn        1 MOL      0.310108
     79 H35         4.4670    5.3640   -1.7790 h1        1 MOL      0.160390
     80 H36         5.5430    6.3770   -0.6990 h1        1 MOL      0.160390
     81 N9          2.7190    5.3010    0.0690 n         1 MOL     -0.603753
     82 C25         1.5450    5.0100    0.8870 c3        1 MOL      0.210391
     83 C26         1.4320    3.5330    1.2510 c         1 MOL      0.405875
     84 O13         2.2900    2.6830    0.9210 o         1 MOL     -0.467444
     85 C27         0.3470    5.3830   -0.0150 c3        1 MOL     -0.368928
     86 C28         0.0620    6.8080   -0.4580 ca        1 MOL      0.133765
     87 C29         0.1710    7.8420    0.4970 ca        1 MOL     -0.127100
     88 C30        -0.4700    7.0610   -1.7600 ca        1 MOL     -0.127100
     89 C31        -0.2580    9.1380    0.2140 ca        1 MOL     -0.309021
     90 C32        -0.7990    8.3940   -2.0420 ca        1 MOL     -0.309021
     91 C33        -0.6730    9.4590   -1.0930 ca        1 MOL      0.367388
     92 O14        -1.0390   10.7320   -1.4220 oh        1 MOL     -0.476322
     93 H37         2.5780    5.3760   -0.9290 hn        1 MOL      0.270065
     94 H38         1.4940    5.6670    1.7530 h1        1 MOL      0.082890
     95 H39        -0.5710    5.1670    0.5490 hc        1 MOL      0.099883
     96 H40         0.4200    4.7870   -0.9200 hc        1 MOL      0.099883
     97 H41         0.5010    7.6330    1.5000 ha        1 MOL      0.139725
     98 H42        -0.4890    6.3350   -2.5580 ha        1 MOL      0.139725
     99 H43        -0.2060    9.9190    0.9620 ha        1 MOL      0.167391
    100 H44        -1.2320    8.6930   -2.9890 ha        1 MOL      0.167391
    101 H45        -0.8830   11.3190   -0.6790 ho        1 MOL      0.369451
    102 N10         0.4680    3.2240    2.0800 n         1 MOL     -0.419441
    103 C34         0.0680    1.9090    2.6910 c3        1 MOL      0.013789
    104 C35        -0.2250    0.7720    1.6440 c         1 MOL      0.149152
    105 O15         0.7680    0.3670    0.9710 o         1 MOL     -0.198340
    106 C36         1.1700    1.5040    3.6870 c3        1 MOL      0.211598
    107 C37         0.7320    0.3380    4.5580 c3        1 MOL     -0.158283
    108 C38         1.6650    2.6950    4.5410 c3        1 MOL     -0.166436
    109 C39        -0.5430    0.4830    5.4920 c3        1 MOL     -0.214737
    110 H46        -0.0530    4.0850    2.1650 hn        1 MOL      0.253555
    111 H47        -0.8690    2.0680    3.2170 h1        1 MOL      0.096321
    112 H48         2.0370    1.1360    3.1290 hc        1 MOL      0.030197
    113 H49         1.6120    0.0750    5.1540 hc        1 MOL      0.065355
    114 H50         0.5350   -0.5320    3.9270 hc        1 MOL      0.065355
    115 H51         2.3320    2.4470    5.3630 hc        1 MOL      0.046892
    116 H52         2.0090    3.6000    4.0310 hc        1 MOL      0.046892
    117 H53         0.7860    3.0040    5.1170 hc        1 MOL      0.046892
    118 H54        -0.4410    1.2960    6.2140 hc        1 MOL      0.060051
    119 H55        -1.3450    0.7400    4.8010 hc        1 MOL      0.060051
    120 H56        -0.7750   -0.4780    5.9370 hc        1 MOL      0.060051
    121 N11        -1.3550    0.1160    1.4380 n         1 MOL     -0.105054
    122 C40        -1.5650   -1.0740    0.5770 c3        1 MOL     -0.695298
    123 C41        -2.9690   -1.3660    0.0690 c         1 MOL      0.882237
    124 O16        -3.0700   -1.9110   -1.0040 o         1 MOL     -0.598397
    125 C42        -1.1070   -2.3860    1.2930 c3        1 MOL      0.476614
    126 O17        -1.6520   -2.4320    2.6160 oh        1 MOL     -0.629253
    127 H57        -2.1860    0.3960    1.9350 hn        1 MOL      0.222549
    128 H58        -0.8920   -0.8730   -0.2480 h1        1 MOL      0.244382
    129 H59        -0.0400   -2.5430    1.4400 h1        1 MOL     -0.028903
    130 H60        -1.5650   -3.1970    0.7210 h1        1 MOL     -0.028903
    131 H61        -0.9380   -2.7450    3.1780 ho        1 MOL      0.377792
    132 N12        -4.0220   -0.9870    0.8090 n         1 MOL     -0.558895
    133 C43        -5.3830   -0.9930    0.3600 c3        1 MOL     -0.003735
    134 C44        -5.6570   -0.1030   -0.9250 c         1 MOL      0.638189
    135 O18        -4.8960    0.6900   -1.4790 o         1 MOL     -0.546922
    136 C45        -6.2880   -0.4920    1.5570 c3        1 MOL     -0.349761
    137 H62        -3.8090   -0.4940    1.6540 hn        1 MOL      0.328573
    138 H63        -5.5460   -2.0630    0.1790 h1        1 MOL      0.155145
    139 H64        -6.3550   -1.2500    2.3280 hc        1 MOL      0.112710
    140 H65        -5.9610    0.4830    1.9380 hc        1 MOL      0.112710
    141 H66        -7.3480   -0.4000    1.3310 hc        1 MOL      0.112710
    142 N13        -6.8450   -0.2370   -1.6200 n         1 MOL     -0.677693
    143 C46        -7.9770   -1.1600   -1.5040 c3        1 MOL      0.371792
    144 C47        -9.2390   -0.4210   -2.0610 c         1 MOL      0.343846
    145 O19        -9.0910    0.1190   -3.1450 o         1 MOL     -0.522144
    146 C48        -7.6760   -2.4830   -2.2020 c3        1 MOL     -0.135292
    147 H67        -6.9320    0.3130   -2.4530 hn        1 MOL      0.351198
    148 H68        -8.2220   -1.4770   -0.4910 h1        1 MOL     -0.018430
    149 H69        -8.6020   -3.0550   -2.1970 hc        1 MOL      0.026818
    150 H70        -7.4050   -2.2660   -3.2330 hc        1 MOL      0.026818
    151 H71        -6.9590   -3.0900   -1.6400 hc        1 MOL      0.026818
    152 N14       -10.4340   -0.5140   -1.5330 n         1 MOL     -0.262912
    153 C49       -10.7150   -1.2290   -0.2590 c3        1 MOL     -0.162055
    154 C50       -10.1450   -0.4220    0.8640 c         1 MOL      0.526463
    155 O20        -9.6920   -1.0010    1.8510 o         1 MOL     -0.582176
    156 C51       -12.2590   -1.3160    0.0350 c3        1 MOL     -0.081725
    157 C52       -13.2080   -0.0900    0.0930 c3        1 MOL     -0.030277
    158 C53       -13.2410    0.7200   -1.2240 c         1 MOL      0.650786
    159 O21       -12.4610    1.7070   -1.3150 o         1 MOL     -0.667326
    160 O22       -13.9170    0.2390   -2.1740 o         1 MOL     -0.667326
    161 H72       -11.2450   -0.2550   -2.0650 hn        1 MOL      0.307804
    162 H73       -10.2900   -2.2350   -0.1460 h1        1 MOL      0.092877
    163 H74       -12.3720   -1.8320    0.9850 hc        1 MOL      0.048436
    164 H75       -12.7220   -2.0430   -0.6380 hc        1 MOL      0.048436
    165 H76       -13.0530    0.6310    0.9000 hc        1 MOL     -0.011721
    166 H77       -14.2340   -0.4410    0.2340 hc        1 MOL     -0.011721
    167 N15       -10.0460    0.8770    0.6870 n         1 MOL     -0.145036
    168 C54        -9.4680    1.9230    1.5610 c3        1 MOL     -0.335462
    169 H78       -10.0970    2.0480    2.4420 h1        1 MOL      0.126943
    170 H79        -8.4670    1.6260    1.8700 h1        1 MOL      0.126943
    171 H80        -9.4170    2.8650    1.0160 h1        1 MOL      0.126943
    172 H81       -10.4450    1.2440   -0.1610 hn        1 MOL      0.203965
    173 Ca1         2.5230    0.6670   -0.9920 Ca        1 MOL      1.694704
    174 O23         0.8900   -1.9940   -1.4650 oh        1 MOL     -0.847981
    175 H82         1.3950   -2.1520   -2.2630 ho        1 MOL      0.420379
    176 H83         0.1400   -2.5820   -1.5480 ho        1 MOL      0.420379
    177 O24         0.2430    1.4010   -1.9740 oh        1 MOL     -0.847981
    178 H84        -0.0140    1.2790   -2.8920 ho        1 MOL      0.420379
    179 H85        -0.3650    2.0710   -1.6460 ho        1 MOL      0.420379
    180 O25         2.4370    1.9940   -3.5220 oh        1 MOL     -0.847981
    181 H86         3.0490    2.5820   -3.9820 ho        1 MOL      0.420379
    182 H87         1.6900    1.9210   -4.1130 ho        1 MOL      0.420379
@<TRIPOS>BOND
     1    1    2 1   
     2    1    4 1   
     3    1    5 1   
     4    1    6 1   
     5    2    3 2   
     6    2    7 1   
     7    7    8 1   
     8    7   15 1   
     9    8    9 1   
    10    8   11 1   
    11    8   16 1   
    12    9   10 2   
    13    9   19 1   
    14   11   12 1   
    15   11   17 1   
    16   11   18 1   
    17   12   13 1   
    18   12   14 1   
    19   19   20 1   
    20   19   28 1   
    21   20   21 1   
    22   20   23 1   
    23   20   29 1   
    24   21   22 2   
    25   21   41 1   
    26   23   24 1   
    27   23   30 1   
    28   23   31 1   
    29   24   25 1   
    30   24   32 1   
    31   24   33 1   
    32   25   26 1   
    33   25   34 1   
    34   25   35 1   
    35   26   27 1   
    36   26   36 1   
    37   26   37 1   
    38   27   38 1   
    39   27   39 1   
    40   27   40 1   
    41   41   42 1   
    42   41   49 1   
    43   42   43 1   
    44   42   45 1   
    45   42   50 1   
    46   43   44 2   
    47   43   53 1   
    48   45   46 1   
    49   45   51 1   
    50   45   52 1   
    51   46   47 1   
    52   46   48 1   
    53   53   54 1   
    54   53   57 1   
    55   54   55 1   
    56   54   58 1   
    57   54   59 1   
    58   55   56 2   
    59   55   60 1   
    60   60   61 1   
    61   60   68 1   
    62   61   62 1   
    63   61   64 1   
    64   61   69 1   
    65   62   63 2   
    66   62   74 1   
    67   64   65 1   
    68   64   70 1   
    69   64   71 1   
    70   65   66 1   
    71   65   67 2   
    72   66   72 1   
    73   66   73 1   
    74   74   75 1   
    75   74   78 1   
    76   75   76 1   
    77   75   79 1   
    78   75   80 1   
    79   76   77 2   
    80   76   81 1   
    81   81   82 1   
    82   81   93 1   
    83   82   83 1   
    84   82   85 1   
    85   82   94 1   
    86   83   84 2   
    87   83  102 1   
    88   85   86 1   
    89   85   95 1   
    90   85   96 1   
    91   86   87 ar  
    92   86   88 ar  
    93   87   89 ar  
    94   87   97 1   
    95   88   90 ar  
    96   88   98 1   
    97   89   91 ar  
    98   89   99 1   
    99   90   91 ar  
   100   90  100 1   
   101   91   92 1   
   102   92  101 1   
   103  102  103 1   
   104  102  110 1   
   105  103  104 1   
   106  103  106 1   
   107  103  111 1   
   108  104  105 2   
   109  104  121 1   
   110  106  107 1   
   111  106  108 1   
   112  106  112 1   
   113  107  109 1   
   114  107  113 1   
   115  107  114 1   
   116  108  115 1   
   117  108  116 1   
   118  108  117 1   
   119  109  118 1   
   120  109  119 1   
   121  109  120 1   
   122  121  122 1   
   123  121  127 1   
   124  122  123 1   
   125  122  125 1   
   126  122  128 1   
   127  123  124 2   
   128  123  132 1   
   129  125  126 1   
   130  125  129 1   
   131  125  130 1   
   132  126  131 1   
   133  132  133 1   
   134  132  137 1   
   135  133  134 1   
   136  133  136 1   
   137  133  138 1   
   138  134  135 2   
   139  134  142 1   
   140  136  139 1   
   141  136  140 1   
   142  136  141 1   
   143  142  143 1   
   144  142  147 1   
   145  143  144 1   
   146  143  146 1   
   147  143  148 1   
   148  144  145 2   
   149  144  152 1   
   150  146  149 1   
   151  146  150 1   
   152  146  151 1   
   153  152  153 1   
   154  152  161 1   
   155  153  154 1   
   156  153  156 1   
   157  153  162 1   
   158  154  155 2   
   159  154  167 1   
   160  156  157 1   
   161  156  163 1   
   162  156  164 1   
   163  157  158 1   
   164  157  165 1   
   165  157  166 1   
   166  158  159 1   
   167  158  160 1   
   168  167  168 1   
   169  167  172 1   
   170  168  169 1   
   171  168  170 1   
   172  168  171 1   
   173  174  175 1   
   174  174  176 1   
   175  177  178 1   
   176  177  179 1   
   177  180  181 1   
   178  180  182 1   
@<TRIPOS>SUBSTRUCTURE
     1 MOL         1 TEMP              0 ****  ****    0 ROOT
