@<TRIPOS>MOLECULE
MOL
  181   177     1     0     0
SMALL
resp


@<TRIPOS>ATOM
      1 C1        -11.4360   -7.0120    0.7720 c3        1 MOL     -0.351654
      2 C2        -11.8260   -5.6540    1.4510 c         1 MOL      0.719920
      3 O1        -11.9960   -5.5610    2.6780 o         1 MOL     -0.612905
      4 H1        -11.0260   -6.8180   -0.2190 hc        1 MOL      0.099058
      5 H2        -10.6890   -7.5220    1.3800 hc        1 MOL      0.099058
      6 H3        -12.3220   -7.6410    0.6820 hc        1 MOL      0.099058
      7 N1        -11.9040   -4.5410    0.7310 n         1 MOL     -0.676459
      8 C3        -11.5120   -4.2840   -0.6480 c3        1 MOL      0.090944
      9 C4        -12.4200   -3.2730   -1.4390 c         1 MOL      0.419045
     10 O2        -12.2840   -3.0630   -2.6440 o         1 MOL     -0.510103
     11 C5        -10.0100   -3.7610   -0.6900 c3        1 MOL     -0.249942
     12 C6         -9.7110   -2.5410    0.1420 c         1 MOL      0.946375
     13 O3         -8.4820   -2.2450    0.3210 o         1 MOL     -0.794273
     14 O4        -10.5950   -1.8490    0.7390 o         1 MOL     -0.794273
     15 H4        -11.9900   -3.7010    1.2930 hn        1 MOL      0.353656
     16 H5        -11.5250   -5.2340   -1.1910 h1        1 MOL      0.084258
     17 H6         -9.6600   -3.6270   -1.7150 hc        1 MOL      0.076948
     18 H7         -9.3400   -4.5400   -0.3150 hc        1 MOL      0.076948
     19 N2        -13.2630   -2.5270   -0.6720 n         1 MOL     -0.337489
     20 C7        -14.0390   -1.4560   -1.3100 c3        1 MOL      0.054975
     21 C8        -13.1530   -0.2940   -1.8230 c         1 MOL      0.512002
     22 O5        -13.5620    0.3320   -2.8340 o         1 MOL     -0.579507
     23 C9        -15.0860   -1.0700   -0.2960 c3        1 MOL     -0.133221
     24 H8        -13.3770   -2.6460    0.3250 hn        1 MOL      0.272886
     25 H9        -14.4260   -1.9310   -2.2120 h1        1 MOL      0.065492
     26 H10       -15.4810   -1.9750    0.1530 hc        1 MOL      0.042333
     27 H11       -14.5940   -0.4170    0.4300 hc        1 MOL      0.042333
     28 H12       -15.9160   -0.5150   -0.7390 hc        1 MOL      0.042333
     29 N3        -12.0310   -0.0020   -1.1750 n         1 MOL     -0.017922
     30 C10       -11.2390    1.1980   -1.6630 c3        1 MOL     -0.374925
     31 C11        -9.7190    0.9520   -1.6660 c         1 MOL      0.665124
     32 O6         -9.1430    0.3710   -0.7190 o         1 MOL     -0.556222
     33 C12       -11.6230    2.4800   -0.9090 c3        1 MOL     -0.036719
     34 C13       -11.6780    2.3430    0.6360 c         1 MOL      0.687204
     35 O7        -11.1080    1.3570    1.2270 o         1 MOL     -0.707008
     36 O8        -12.3010    3.2040    1.2820 o         1 MOL     -0.707008
     37 H13       -11.5890   -0.6460   -0.5370 hn        1 MOL      0.050432
     38 H14       -11.4460    1.3890   -2.7180 h1        1 MOL      0.117074
     39 H15       -12.5720    2.7970   -1.3250 hc        1 MOL      0.042623
     40 H16       -10.8560    3.2580   -1.0230 hc        1 MOL      0.042623
     41 N4         -9.0530    1.4540   -2.6750 n         1 MOL     -0.463816
     42 C14        -7.5660    1.3570   -2.8480 c3        1 MOL     -0.107657
     43 C15        -6.6130    1.9010   -1.7250 c         1 MOL      0.599609
     44 O9         -6.9690    2.8330   -0.9900 o         1 MOL     -0.516389
     45 H17        -9.5750    2.0040   -3.3430 hn        1 MOL      0.321190
     46 H18        -7.3230    1.8930   -3.7620 h1        1 MOL      0.109060
     47 H19        -7.2950    0.3520   -3.1900 h1        1 MOL      0.109060
     48 N5         -5.4060    1.2840   -1.7230 n         1 MOL     -0.633605
     49 C16        -4.4070    1.4130   -0.7140 c3        1 MOL      0.377055
     50 C17        -3.1010    1.9410   -1.3240 c         1 MOL      0.573225
     51 O10        -2.8300    1.7850   -2.5160 o         1 MOL     -0.555824
     52 C18        -4.1020    0.0480    0.1030 c3        1 MOL     -0.562954
     53 C19        -5.4030   -0.6540    0.6410 c         1 MOL      0.702178
     54 N6         -5.6090   -1.8790    0.3930 n         1 MOL     -0.661003
     55 O11        -6.2380   -0.0460    1.3030 o         1 MOL     -0.600921
     56 H20        -5.2900    0.5080   -2.3680 hn        1 MOL      0.325411
     57 H21        -4.7800    2.2190   -0.0850 h1        1 MOL     -0.024192
     58 H22        -3.4460    0.2650    0.9450 hc        1 MOL      0.163432
     59 H23        -3.5020   -0.6080   -0.5320 hc        1 MOL      0.163432
     60 H24        -4.8860   -2.3470   -0.1390 hn        1 MOL      0.341687
     61 H25        -6.4090   -2.3070    0.8400 hn        1 MOL      0.341687
     62 N7         -2.2680    2.6350   -0.5140 n         1 MOL     -0.400619
     63 C20        -1.0810    3.3870   -0.9250 c3        1 MOL     -0.247108
     64 C21        -0.2800    3.8160    0.3470 c         1 MOL      0.717982
     65 O12        -0.7370    3.5300    1.4450 o         1 MOL     -0.571544
     66 H26        -2.5340    2.8230    0.4380 hn        1 MOL      0.255282
     67 H27        -1.4290    4.3260   -1.3560 h1        1 MOL      0.169474
     68 H28        -0.3460    2.8740   -1.5480 h1        1 MOL      0.169474
     69 N8          0.9640    4.4040    0.2140 n         1 MOL     -0.641442
     70 C22         1.8390    4.8240   -0.9270 c3        1 MOL      0.119954
     71 C23         3.2510    4.1830   -0.8960 c         1 MOL      0.517200
     72 O13         3.8530    3.9910   -1.9580 o         1 MOL     -0.572410
     73 C24         2.1010    6.3550   -0.6920 c3        1 MOL      0.244617
     74 C25         0.9610    7.2200   -1.3000 c3        1 MOL     -0.330373
     75 O14         2.2640    6.6100    0.6980 oh        1 MOL     -0.595015
     76 H29         1.3230    4.6160    1.1260 hn        1 MOL      0.320826
     77 H30         1.4120    4.6510   -1.9200 h1        1 MOL      0.073620
     78 H31         3.0250    6.5580   -1.2340 h1        1 MOL      0.015932
     79 H32         2.2800    7.5540    0.8340 ho        1 MOL      0.410376
     80 H33         0.0820    7.0080   -0.6950 hc        1 MOL      0.076732
     81 H34         1.3110    8.2520   -1.2930 hc        1 MOL      0.076732
     82 H35         0.7100    6.9490   -2.3250 hc        1 MOL      0.076732
     83 N9          3.6500    3.5710    0.2170 n         1 MOL     -0.255050
     84 C26         4.8770    2.7700    0.3600 c3        1 MOL     -0.342427
     85 C27         4.5410    1.2870    0.1570 c         1 MOL      0.759432
     86 O15         3.4360    0.8440    0.5300 o         1 MOL     -0.621446
     87 C28         5.6460    3.1530    1.6680 c3        1 MOL      0.117843
     88 C29         6.0800    4.6540    1.5780 c3        1 MOL      0.270393
     89 C30         6.8360    2.2210    1.9790 c3        1 MOL     -0.265935
     90 C31         6.5190    5.0940    3.0120 c3        1 MOL     -0.593804
     91 H36         3.0880    3.7800    1.0200 hn        1 MOL      0.249273
     92 H37         5.5510    2.9840   -0.4660 h1        1 MOL      0.135876
     93 H38         5.0050    3.0170    2.5300 hc        1 MOL      0.006864
     94 H39         5.2420    5.3280    1.4020 hc        1 MOL     -0.035573
     95 H40         6.8640    4.6980    0.8210 hc        1 MOL     -0.035573
     96 H41         7.5270    2.2820    1.1380 hc        1 MOL      0.089160
     97 H42         7.3070    2.6070    2.8830 hc        1 MOL      0.089160
     98 H43         6.5730    1.1770    2.1600 hc        1 MOL      0.089160
     99 H44         5.8450    4.7320    3.7890 hc        1 MOL      0.139098
    100 H45         7.5560    4.7910    3.1350 hc        1 MOL      0.139098
    101 H46         6.5660    6.1860    3.0470 hc        1 MOL      0.139098
    102 N10         5.4460    0.4770   -0.4150 n         1 MOL     -0.570040
    103 C32         6.6260    0.8090   -1.2300 c3        1 MOL      0.154024
    104 C33         7.5560   -0.3300   -1.2500 c         1 MOL      0.396164
    105 O16         7.1010   -1.4960   -1.1260 o         1 MOL     -0.484811
    106 C34         6.0930    1.0650   -2.6660 c3        1 MOL     -0.101016
    107 C35         5.4410   -0.1470   -3.3560 c         1 MOL      0.626383
    108 O17         4.2940   -0.6000   -2.9980 o         1 MOL     -0.672585
    109 O18         6.1360   -0.6860   -4.2840 o         1 MOL     -0.672585
    110 H47         5.2590   -0.5070   -0.5080 hn        1 MOL      0.328078
    111 H48         7.0920    1.6860   -0.8030 h1        1 MOL      0.022612
    112 H49         6.8560    1.4720   -3.3250 hc        1 MOL      0.021277
    113 H50         5.4290    1.9230   -2.6250 hc        1 MOL      0.021277
    114 N11         8.8570   -0.1030   -1.4410 n         1 MOL     -0.406309
    115 C36         9.8540   -1.1770   -1.5160 c3        1 MOL      0.401461
    116 C37        11.2690   -0.6950   -1.2470 c         1 MOL      0.247749
    117 O19        11.5470    0.4790   -1.5320 o         1 MOL     -0.469875
    118 C38         9.7960   -1.5910   -2.9780 c3        1 MOL     -0.310435
    119 C39        10.7880   -2.6660   -3.3570 ca        1 MOL      0.177215
    120 C40        10.4330   -4.0570   -3.4090 ca        1 MOL     -0.113371
    121 C41        12.0070   -2.2990   -3.9120 ca        1 MOL     -0.113371
    122 C42        11.3100   -5.0390   -3.8520 ca        1 MOL     -0.151788
    123 C43        12.8130   -3.2850   -4.5390 ca        1 MOL     -0.151788
    124 C44        12.5260   -4.6610   -4.4010 ca        1 MOL     -0.144963
    125 H51         9.1630    0.8560   -1.3250 hn        1 MOL      0.279466
    126 H52         9.6250   -1.9980   -0.8400 h1        1 MOL     -0.020614
    127 H53         9.9060   -0.7080   -3.5940 hc        1 MOL      0.091674
    128 H54         8.8150   -1.9800   -3.2670 hc        1 MOL      0.091674
    129 H55         9.5200   -4.3500   -2.9240 ha        1 MOL      0.111375
    130 H56        12.2940   -1.2730   -4.1090 ha        1 MOL      0.111375
    131 H57        11.0600   -6.0830   -3.7250 ha        1 MOL      0.102746
    132 H58        13.7590   -2.9550   -4.9430 ha        1 MOL      0.102746
    133 H59        13.1420   -5.4660   -4.7700 ha        1 MOL      0.102238
    134 N12        12.0710   -1.5020   -0.5670 n         1 MOL     -0.115453
    135 C45        11.6980   -2.8450   -0.0880 c3        1 MOL     -0.010265
    136 C46        10.8330   -2.8350    1.1490 c         1 MOL      0.486419
    137 O20         9.9140   -3.6620    1.2140 o         1 MOL     -0.587602
    138 C47        13.1010   -3.4160    0.3100 c3        1 MOL     -0.149600
    139 C48        13.8660   -2.2040    0.7000 c3        1 MOL      0.143535
    140 C49        13.4850   -1.1080   -0.2910 c3        1 MOL     -0.237484
    141 H60        11.2010   -3.4610   -0.8350 h1        1 MOL      0.071388
    142 H61        13.1880   -4.1170    1.1410 hc        1 MOL      0.057490
    143 H62        13.5740   -3.8670   -0.5610 hc        1 MOL      0.057490
    144 H63        13.6110   -1.9450    1.7340 hc        1 MOL     -0.023137
    145 H64        14.9410   -2.3610    0.6300 hc        1 MOL     -0.023137
    146 H65        13.5540   -0.2210    0.3420 h1        1 MOL      0.117616
    147 H66        14.1420   -1.0560   -1.1600 h1        1 MOL      0.117616
    148 N13        10.9930   -1.9370    2.0470 n         1 MOL     -0.207261
    149 C50        10.1790   -1.7600    3.2190 c3        1 MOL      0.045880
    150 C51        10.5030   -2.7610    4.3840 c         1 MOL      0.496361
    151 O21        11.6060   -2.7880    4.9110 o         1 MOL     -0.553801
    152 C52        10.3810   -0.2650    3.6770 c3        1 MOL     -0.578728
    153 C53         9.8870    0.7670    2.6490 c3        1 MOL     -0.107095
    154 C54        10.7770    1.9200    2.2130 c         1 MOL      0.754901
    155 O22        10.4080    2.6720    1.3170 o         1 MOL     -0.731471
    156 O23        11.7650    2.1970    2.9870 o         1 MOL     -0.731471
    157 H67        11.9040   -1.5010    2.0530 hn        1 MOL      0.299233
    158 H68         9.1170   -1.8700    3.0050 h1        1 MOL      0.125867
    159 H69        11.4690   -0.2200    3.7850 hc        1 MOL      0.176847
    160 H70         9.8010   -0.2040    4.6010 hc        1 MOL      0.176847
    161 H71         9.1000    1.2590    3.2290 hc        1 MOL      0.040419
    162 H72         9.4920    0.3400    1.7330 hc        1 MOL      0.040419
    163 N14         9.5250   -3.6250    4.7450 n         1 MOL     -0.468490
    164 C55         8.3480   -4.1640    3.9680 c3        1 MOL     -0.006048
    165 H73         8.7050   -4.8430    3.1930 h1        1 MOL      0.052747
    166 H74         7.6820   -4.7010    4.6420 h1        1 MOL      0.052747
    167 H75         7.8080   -3.3370    3.5050 h1        1 MOL      0.052747
    168 H76         9.6550   -4.2580    5.5220 hn        1 MOL      0.289662
    169 Ca1        -9.1120    0.0090    1.9190 Ca        1 MOL      1.733694
    170 O24        -8.2140    1.4220    4.2740 oh        1 MOL     -0.858866
    171 H77        -8.4940    2.2360    4.6960 ho        1 MOL      0.418224
    172 H78        -7.4480    1.1500    4.7800 ho        1 MOL      0.418224
    173 O25       -10.4510   -1.5940    3.6400 oh        1 MOL     -0.858866
    174 H79       -10.3810   -1.7130    4.5860 ho        1 MOL      0.418224
    175 H80       -11.3250   -1.8910    3.4110 ho        1 MOL      0.418224
    176 O26        -8.1190    2.4170    1.4750 oh        1 MOL     -0.858866
    177 H81        -7.7670    2.4110    0.5780 ho        1 MOL      0.418224
    178 H82        -7.6830    3.1580    1.8930 ho        1 MOL      0.418224
    179 O27        -7.5200   -1.5170    3.4000 oh        1 MOL     -0.858866
    180 H83        -7.0900   -1.3040    4.2230 ho        1 MOL      0.418224
    181 H84        -7.4000   -2.4650    3.3000 ho        1 MOL      0.418224
@<TRIPOS>BOND
     1    1    2 1   
     2    1    4 1   
     3    1    5 1   
     4    1    6 1   
     5    2    3 2   
     6    2    7 1   
     7    7    8 1   
     8    7   15 1   
     9    8    9 1   
    10    8   11 1   
    11    8   16 1   
    12    9   10 2   
    13    9   19 1   
    14   11   12 1   
    15   11   17 1   
    16   11   18 1   
    17   12   13 1   
    18   12   14 1   
    19   19   20 1   
    20   19   24 1   
    21   20   21 1   
    22   20   23 1   
    23   20   25 1   
    24   21   22 2   
    25   21   29 1   
    26   23   26 1   
    27   23   27 1   
    28   23   28 1   
    29   29   30 1   
    30   29   37 1   
    31   30   31 1   
    32   30   33 1   
    33   30   38 1   
    34   31   32 2   
    35   31   41 1   
    36   33   34 1   
    37   33   39 1   
    38   33   40 1   
    39   34   35 1   
    40   34   36 1   
    41   41   42 1   
    42   41   45 1   
    43   42   43 1   
    44   42   46 1   
    45   42   47 1   
    46   43   44 2   
    47   43   48 1   
    48   48   49 1   
    49   48   56 1   
    50   49   50 1   
    51   49   52 1   
    52   49   57 1   
    53   50   51 2   
    54   50   62 1   
    55   52   53 1   
    56   52   58 1   
    57   52   59 1   
    58   53   54 1   
    59   53   55 2   
    60   54   60 1   
    61   54   61 1   
    62   62   63 1   
    63   62   66 1   
    64   63   64 1   
    65   63   67 1   
    66   63   68 1   
    67   64   65 2   
    68   64   69 1   
    69   69   70 1   
    70   69   76 1   
    71   70   71 1   
    72   70   73 1   
    73   70   77 1   
    74   71   72 2   
    75   71   83 1   
    76   73   74 1   
    77   73   75 1   
    78   73   78 1   
    79   74   80 1   
    80   74   81 1   
    81   74   82 1   
    82   75   79 1   
    83   83   84 1   
    84   83   91 1   
    85   84   85 1   
    86   84   87 1   
    87   84   92 1   
    88   85   86 2   
    89   85  102 1   
    90   87   88 1   
    91   87   89 1   
    92   87   93 1   
    93   88   90 1   
    94   88   94 1   
    95   88   95 1   
    96   89   96 1   
    97   89   97 1   
    98   89   98 1   
    99   90   99 1   
   100   90  100 1   
   101   90  101 1   
   102  102  103 1   
   103  102  110 1   
   104  103  104 1   
   105  103  106 1   
   106  103  111 1   
   107  104  105 2   
   108  104  114 1   
   109  106  107 1   
   110  106  112 1   
   111  106  113 1   
   112  107  108 1   
   113  107  109 1   
   114  114  115 1   
   115  114  125 1   
   116  115  116 1   
   117  115  118 1   
   118  115  126 1   
   119  116  117 2   
   120  116  134 1   
   121  118  119 1   
   122  118  127 1   
   123  118  128 1   
   124  119  120 ar  
   125  119  121 ar  
   126  120  122 ar  
   127  120  129 1   
   128  121  123 ar  
   129  121  130 1   
   130  122  124 ar  
   131  122  131 1   
   132  123  124 ar  
   133  123  132 1   
   134  124  133 1   
   135  134  135 1   
   136  134  140 1   
   137  135  136 1   
   138  135  138 1   
   139  135  141 1   
   140  136  137 2   
   141  136  148 1   
   142  138  139 1   
   143  138  142 1   
   144  138  143 1   
   145  139  140 1   
   146  139  144 1   
   147  139  145 1   
   148  140  146 1   
   149  140  147 1   
   150  148  149 1   
   151  148  157 1   
   152  149  150 1   
   153  149  152 1   
   154  149  158 1   
   155  150  151 2   
   156  150  163 1   
   157  152  153 1   
   158  152  159 1   
   159  152  160 1   
   160  153  154 1   
   161  153  161 1   
   162  153  162 1   
   163  154  155 1   
   164  154  156 1   
   165  163  164 1   
   166  163  168 1   
   167  164  165 1   
   168  164  166 1   
   169  164  167 1   
   170  170  171 1   
   171  170  172 1   
   172  173  174 1   
   173  173  175 1   
   174  176  177 1   
   175  176  178 1   
   176  179  180 1   
   177  179  181 1   
@<TRIPOS>SUBSTRUCTURE
     1 MOL         1 TEMP              0 ****  ****    0 ROOT
