@<TRIPOS>MOLECULE
MOL
  182   178     1     0     0
SMALL
resp


@<TRIPOS>ATOM
      1 C1          0.2440   -3.2330    6.1080 c3        1 MOL     -0.392744
      2 C2          0.4280   -3.1230    4.5920 c         1 MOL      0.806814
      3 O1         -0.6000   -3.1780    3.9050 o         1 MOL     -0.586102
      4 H1         -0.8180   -3.1890    6.3490 hc        1 MOL      0.108046
      5 H2          0.6570   -4.1790    6.4580 hc        1 MOL      0.108046
      6 H3          0.7610   -2.4080    6.5990 hc        1 MOL      0.108046
      7 N1          1.6980   -3.1280    4.0990 n         1 MOL     -0.657403
      8 C3          2.0740   -2.9750    2.7400 c3        1 MOL      0.110408
      9 C4          2.0750   -4.2550    1.9410 c         1 MOL      0.586689
     10 O2          2.2800   -5.3710    2.4690 o         1 MOL     -0.553087
     11 C5          3.3560   -2.1670    2.8050 c3        1 MOL      0.091495
     12 C6          3.5940   -1.3940    1.5550 c         1 MOL      0.260063
     13 O3          4.3040   -0.3980    1.6640 o         1 MOL     -0.525818
     14 O4          3.0220   -1.7020    0.4430 o         1 MOL     -0.525818
     15 H4          2.4050   -3.0240    4.8150 hn        1 MOL      0.315222
     16 H5          1.4340   -2.2010    2.3140 h1        1 MOL     -0.034114
     17 H6          4.2000   -2.8370    2.9620 hc        1 MOL      0.017537
     18 H7          3.2980   -1.4230    3.6040 hc        1 MOL      0.017537
     19 N2          1.8470   -4.1180    0.6240 n         1 MOL     -0.275403
     20 C7          1.8700   -5.1780   -0.3530 c3        1 MOL     -0.279679
     21 C8          3.2520   -5.2110   -1.1490 c         1 MOL      0.608651
     22 O5          3.5970   -6.2480   -1.6670 o         1 MOL     -0.558931
     23 C9          0.6590   -4.9960   -1.2800 c3        1 MOL     -0.007713
     24 C10         0.4210   -6.0770   -2.3720 c3        1 MOL     -0.063309
     25 C11        -0.9640   -6.1180   -2.9920 c3        1 MOL      0.008025
     26 C12        -2.0180   -6.9020   -2.1480 c3        1 MOL      0.015515
     27 N3         -3.2530   -7.2200   -2.9250 n4        1 MOL     -0.208847
     28 H8          1.8580   -3.1650    0.2790 hn        1 MOL      0.138170
     29 H9          1.8710   -6.1360    0.1690 h1        1 MOL      0.160365
     30 H10         0.7290   -4.0350   -1.7900 hc        1 MOL      0.062164
     31 H11        -0.2600   -4.8980   -0.7010 hc        1 MOL      0.062164
     32 H12         0.5950   -7.0280   -1.8740 hc        1 MOL      0.047186
     33 H13         1.2470   -5.9530   -3.0810 hc        1 MOL      0.047186
     34 H14        -0.7960   -6.5810   -3.9650 hc        1 MOL      0.017290
     35 H15        -1.2480   -5.0750   -3.1080 hc        1 MOL      0.017290
     36 H16        -2.3040   -6.2860   -1.2990 hx        1 MOL      0.084949
     37 H17        -1.5950   -7.8730   -1.8810 hx        1 MOL      0.084949
     38 H18        -3.9040   -7.7330   -2.3460 hn        1 MOL      0.238256
     39 H19        -3.8060   -6.3810   -2.9840 hn        1 MOL      0.238256
     40 H20        -3.1690   -7.6710   -3.8260 hn        1 MOL      0.238256
     41 N4          4.0080   -4.1050   -1.1890 n         1 MOL     -0.391967
     42 C13         5.3290   -4.0230   -1.8320 c3        1 MOL      0.064550
     43 C14         6.4570   -3.6080   -0.9220 c         1 MOL      0.450068
     44 O6          7.5970   -3.9680   -1.2560 o         1 MOL     -0.545915
     45 C15         5.2130   -3.0020   -2.9960 c3        1 MOL     -0.228136
     46 C16         4.5830   -1.6380   -2.6070 c         1 MOL      0.829053
     47 O7          4.9750   -1.0280   -1.5690 o         1 MOL     -0.784519
     48 O8          3.6500   -1.2290   -3.2690 o         1 MOL     -0.784519
     49 H21         3.5810   -3.3130   -0.7340 hn        1 MOL      0.290561
     50 H22         5.5930   -4.9840   -2.2710 h1        1 MOL      0.106884
     51 H23         4.5060   -3.3760   -3.7410 hc        1 MOL      0.058624
     52 H24         6.1860   -2.8000   -3.4450 hc        1 MOL      0.058624
     53 N5          6.2180   -2.9550    0.2080 n         1 MOL     -0.139459
     54 C17         7.1590   -2.6270    1.2640 c3        1 MOL     -0.185088
     55 C18         7.6830   -1.1870    1.1580 c         1 MOL      0.541472
     56 O9          8.8260   -0.9190    1.5860 o         1 MOL     -0.589266
     57 H25         5.2590   -2.6740    0.3580 hn        1 MOL      0.070201
     58 H26         8.0160   -3.3120    1.2630 h1        1 MOL      0.122513
     59 H27         6.6430   -2.6800    2.2210 h1        1 MOL      0.122513
     60 N6          7.0050   -0.2590    0.5080 n         1 MOL     -0.191525
     61 C19         7.5490    1.1680    0.3680 c3        1 MOL      0.038941
     62 C20         6.4020    2.1480    0.3220 c         1 MOL      0.501543
     63 O10         5.2250    1.8500    0.0360 o         1 MOL     -0.431932
     64 C21         8.4640    1.3390   -0.8770 c3        1 MOL     -0.240692
     65 C22         7.7310    1.2260   -2.1750 c         1 MOL      0.693359
     66 N7          8.2280    0.3210   -2.9980 n         1 MOL     -0.777324
     67 O11         6.8680    1.9950   -2.5550 o         1 MOL     -0.577733
     68 H28         6.1020   -0.5010    0.1300 hn        1 MOL      0.122858
     69 H29         8.1170    1.4450    1.2540 h1        1 MOL      0.074168
     70 H30         9.3000    0.6540   -0.9290 hc        1 MOL      0.090583
     71 H31         8.9820    2.2980   -0.8240 hc        1 MOL      0.090583
     72 H32         8.8110   -0.4100   -2.6030 hn        1 MOL      0.378125
     73 H33         7.8520    0.1690   -3.9250 hn        1 MOL      0.378125
     74 N8          6.6900    3.4230    0.5840 n         1 MOL     -0.476931
     75 C23         5.8390    4.5360    0.1990 c3        1 MOL     -0.156030
     76 C24         4.5250    4.5410    0.8980 c         1 MOL      0.598180
     77 O12         4.4330    4.2780    2.1010 o         1 MOL     -0.484638
     78 H34         7.6630    3.6420    0.7310 hn        1 MOL      0.329293
     79 H35         5.8120    4.5030   -0.8900 h1        1 MOL      0.118224
     80 H36         6.3370    5.4640    0.5100 h1        1 MOL      0.118224
     81 N9          3.4680    4.8890    0.1700 n         1 MOL     -0.495205
     82 C25         2.0280    4.8080    0.5160 c3        1 MOL      0.010626
     83 C26         1.6060    3.3470    0.9100 c         1 MOL      0.769597
     84 O13         2.2790    2.3860    0.5210 o         1 MOL     -0.643417
     85 C27         1.1940    5.1840   -0.7420 c3        1 MOL     -0.381231
     86 C28         1.2770    6.6870   -0.9150 ca        1 MOL      0.097065
     87 C29         0.7550    7.5340    0.1010 ca        1 MOL     -0.095959
     88 C30         1.6880    7.1470   -2.1670 ca        1 MOL     -0.095959
     89 C31         0.6520    8.9410   -0.1860 ca        1 MOL     -0.347000
     90 C32         1.6570    8.5580   -2.3990 ca        1 MOL     -0.347000
     91 C33         1.1600    9.4270   -1.4420 ca        1 MOL      0.410240
     92 O14         1.0770   10.7320   -1.7830 oh        1 MOL     -0.483975
     93 H37         3.6700    5.1300   -0.7820 hn        1 MOL      0.264225
     94 H38         1.7800    5.5250    1.2990 h1        1 MOL      0.084332
     95 H39         0.1750    4.8670   -0.5090 hc        1 MOL      0.144177
     96 H40         1.6140    4.6880   -1.6130 hc        1 MOL      0.144177
     97 H41         0.2800    7.1030    0.9670 ha        1 MOL      0.126346
     98 H42         1.9440    6.4350   -2.9300 ha        1 MOL      0.126346
     99 H43         0.2480    9.6660    0.4980 ha        1 MOL      0.180880
    100 H44         2.0640    8.8740   -3.3420 ha        1 MOL      0.180880
    101 H45         0.6590   11.2350   -1.0750 ho        1 MOL      0.370405
    102 N10         0.5310    3.1030    1.7190 n         1 MOL     -0.664834
    103 C34         0.1160    1.8770    2.4010 c3        1 MOL      0.097527
    104 C35        -0.1690    0.7250    1.4390 c         1 MOL      0.308801
    105 O15         0.7410    0.1290    0.8770 o         1 MOL     -0.281243
    106 C36         1.1860    1.4860    3.5140 c3        1 MOL      0.136387
    107 C37         0.6080    0.3690    4.3420 c3        1 MOL     -0.026977
    108 C38         1.4240    2.6140    4.5140 c3        1 MOL     -0.425153
    109 C39        -0.7210    0.5000    5.0300 c3        1 MOL     -0.266581
    110 H46        -0.1370    3.8530    1.8050 hn        1 MOL      0.326683
    111 H47        -0.7910    2.1330    2.9520 h1        1 MOL      0.078612
    112 H48         2.1010    1.1910    3.0180 hc        1 MOL      0.093045
    113 H49         1.3050    0.0040    5.1030 hc        1 MOL      0.044750
    114 H50         0.4780   -0.5180    3.7130 hc        1 MOL      0.044750
    115 H51         2.2960    2.4470    5.1420 hc        1 MOL      0.113094
    116 H52         1.7340    3.4540    3.8950 hc        1 MOL      0.113094
    117 H53         0.5050    2.7530    5.0890 hc        1 MOL      0.113094
    118 H54        -0.6940    1.2820    5.7930 hc        1 MOL      0.061303
    119 H55        -1.4540    0.6780    4.2540 hc        1 MOL      0.061303
    120 H56        -0.9620   -0.4550    5.5010 hc        1 MOL      0.061303
    121 N11        -1.4250    0.3010    1.2630 n         1 MOL     -0.363930
    122 C40        -1.7780   -0.7840    0.2780 c3        1 MOL      0.008516
    123 C41        -3.2090   -0.8410   -0.2760 c         1 MOL      0.577662
    124 O16        -3.5430   -1.6170   -1.1540 o         1 MOL     -0.528089
    125 C42        -1.2900   -2.1970    0.6550 c3        1 MOL      0.387091
    126 O17        -2.1730   -2.8450    1.5950 oh        1 MOL     -0.628701
    127 H57        -2.1960    0.6960    1.7860 hn        1 MOL      0.275214
    128 H58        -1.0490   -0.5940   -0.5110 h1        1 MOL     -0.015915
    129 H59        -0.2980   -2.1550    1.1200 h1        1 MOL     -0.050462
    130 H60        -1.2030   -2.8480   -0.2140 h1        1 MOL     -0.050462
    131 H61        -1.7290   -2.7670    2.4440 ho        1 MOL      0.372124
    132 N12        -4.0960    0.0370    0.2600 n         1 MOL     -0.675246
    133 C43        -5.5080   -0.0730   -0.0170 c3        1 MOL      0.309658
    134 C44        -5.8440    0.5060   -1.4280 c         1 MOL      0.684353
    135 O18        -5.1830    1.3970   -1.8830 o         1 MOL     -0.608041
    136 C45        -6.1700    0.7140    1.1220 c3        1 MOL     -0.341957
    137 H62        -3.7560    0.6280    1.0040 hn        1 MOL      0.307906
    138 H63        -5.8250   -1.1160   -0.0250 h1        1 MOL      0.054043
    139 H64        -5.6060    0.5170    2.0330 hc        1 MOL      0.097464
    140 H65        -6.1340    1.7810    0.8990 hc        1 MOL      0.097464
    141 H66        -7.1710    0.3310    1.3570 hc        1 MOL      0.097464
    142 N13        -6.8680    0.1700   -2.1060 n         1 MOL     -0.649674
    143 C46        -8.0570   -0.6750   -1.7540 c3        1 MOL      0.235141
    144 C47        -9.2450   -0.1180   -2.6000 c         1 MOL      0.570623
    145 O19        -9.0520    0.1040   -3.8170 o         1 MOL     -0.555924
    146 C48        -7.9510   -2.2150   -2.0250 c3        1 MOL     -0.286271
    147 H67        -6.8130    0.6600   -3.0020 hn        1 MOL      0.337359
    148 H68        -8.2030   -0.5150   -0.6850 h1        1 MOL     -0.005892
    149 H69        -8.8320   -2.8360   -1.8620 hc        1 MOL      0.086056
    150 H70        -7.7920   -2.4280   -3.0870 hc        1 MOL      0.086056
    151 H71        -7.0600   -2.5370   -1.4880 hc        1 MOL      0.086056
    152 N14       -10.4420    0.2100   -2.0730 n         1 MOL     -0.572674
    153 C49       -10.8300   -0.1070   -0.6690 c3        1 MOL      0.034734
    154 C50       -10.1520    0.8610    0.3500 c         1 MOL      0.341724
    155 O20        -9.5960    0.3900    1.3280 o         1 MOL     -0.476469
    156 C51       -12.3430    0.0690   -0.5350 c3        1 MOL      0.128007
    157 C52       -12.8640   -0.0910    0.9050 c3        1 MOL     -0.477951
    158 C53       -14.4280    0.0750    1.0490 c         1 MOL      0.770555
    159 O21       -14.9270    1.2080    1.0200 o         1 MOL     -0.664031
    160 O22       -15.1450   -0.9540    1.1990 o         1 MOL     -0.664031
    161 H72       -11.1040    0.6620   -2.6900 hn        1 MOL      0.327822
    162 H73       -10.3940   -1.0890   -0.4720 h1        1 MOL      0.081456
    163 H74       -12.9150   -0.5790   -1.2040 hc        1 MOL      0.019104
    164 H75       -12.6410    1.0540   -0.9070 hc        1 MOL      0.019104
    165 H76       -12.2710    0.5510    1.5670 hc        1 MOL      0.116051
    166 H77       -12.5810   -1.0850    1.2350 hc        1 MOL      0.116051
    167 N15       -10.0660    2.1970    0.1050 n         1 MOL     -0.203536
    168 C54        -9.4530    3.1950    0.9270 c3        1 MOL     -0.237515
    169 H78        -9.8060    3.0870    1.9530 h1        1 MOL      0.109696
    170 H79        -8.3700    3.0730    0.9020 h1        1 MOL      0.109696
    171 H80        -9.7170    4.1850    0.5560 h1        1 MOL      0.109696
    172 H81       -10.6210    2.5450   -0.6720 hn        1 MOL      0.245857
    173 Ca1         2.9130    0.4080   -1.0700 Ca        1 MOL      1.758748
    174 O23         0.8070    1.4350   -2.2360 oh        1 MOL     -0.890239
    175 H82        -0.0060    0.9180   -2.2280 ho        1 MOL      0.428205
    176 H83         0.6560    2.1230   -2.8770 ho        1 MOL      0.428205
    177 O24         4.2520    1.8670   -2.8390 oh        1 MOL     -0.890239
    178 H84         5.1960    1.9050   -2.7590 ho        1 MOL      0.428205
    179 H85         4.0880    1.8340   -3.7840 ho        1 MOL      0.428205
    180 O25         1.1470   -1.5500   -2.2810 oh        1 MOL     -0.890239
    181 H86         0.2340   -1.5810   -2.5830 ho        1 MOL      0.428205
    182 H87         1.6560   -1.7520   -3.0590 ho        1 MOL      0.428205
@<TRIPOS>BOND
     1    1    2 1   
     2    1    4 1   
     3    1    5 1   
     4    1    6 1   
     5    2    3 2   
     6    2    7 1   
     7    7    8 1   
     8    7   15 1   
     9    8    9 1   
    10    8   11 1   
    11    8   16 1   
    12    9   10 2   
    13    9   19 1   
    14   11   12 1   
    15   11   17 1   
    16   11   18 1   
    17   12   13 1   
    18   12   14 1   
    19   19   20 1   
    20   19   28 1   
    21   20   21 1   
    22   20   23 1   
    23   20   29 1   
    24   21   22 2   
    25   21   41 1   
    26   23   24 1   
    27   23   30 1   
    28   23   31 1   
    29   24   25 1   
    30   24   32 1   
    31   24   33 1   
    32   25   26 1   
    33   25   34 1   
    34   25   35 1   
    35   26   27 1   
    36   26   36 1   
    37   26   37 1   
    38   27   38 1   
    39   27   39 1   
    40   27   40 1   
    41   41   42 1   
    42   41   49 1   
    43   42   43 1   
    44   42   45 1   
    45   42   50 1   
    46   43   44 2   
    47   43   53 1   
    48   45   46 1   
    49   45   51 1   
    50   45   52 1   
    51   46   47 1   
    52   46   48 1   
    53   53   54 1   
    54   53   57 1   
    55   54   55 1   
    56   54   58 1   
    57   54   59 1   
    58   55   56 2   
    59   55   60 1   
    60   60   61 1   
    61   60   68 1   
    62   61   62 1   
    63   61   64 1   
    64   61   69 1   
    65   62   63 2   
    66   62   74 1   
    67   64   65 1   
    68   64   70 1   
    69   64   71 1   
    70   65   66 1   
    71   65   67 2   
    72   66   72 1   
    73   66   73 1   
    74   74   75 1   
    75   74   78 1   
    76   75   76 1   
    77   75   79 1   
    78   75   80 1   
    79   76   77 2   
    80   76   81 1   
    81   81   82 1   
    82   81   93 1   
    83   82   83 1   
    84   82   85 1   
    85   82   94 1   
    86   83   84 2   
    87   83  102 1   
    88   85   86 1   
    89   85   95 1   
    90   85   96 1   
    91   86   87 ar  
    92   86   88 ar  
    93   87   89 ar  
    94   87   97 1   
    95   88   90 ar  
    96   88   98 1   
    97   89   91 ar  
    98   89   99 1   
    99   90   91 ar  
   100   90  100 1   
   101   91   92 1   
   102   92  101 1   
   103  102  103 1   
   104  102  110 1   
   105  103  104 1   
   106  103  106 1   
   107  103  111 1   
   108  104  105 2   
   109  104  121 1   
   110  106  107 1   
   111  106  108 1   
   112  106  112 1   
   113  107  109 1   
   114  107  113 1   
   115  107  114 1   
   116  108  115 1   
   117  108  116 1   
   118  108  117 1   
   119  109  118 1   
   120  109  119 1   
   121  109  120 1   
   122  121  122 1   
   123  121  127 1   
   124  122  123 1   
   125  122  125 1   
   126  122  128 1   
   127  123  124 2   
   128  123  132 1   
   129  125  126 1   
   130  125  129 1   
   131  125  130 1   
   132  126  131 1   
   133  132  133 1   
   134  132  137 1   
   135  133  134 1   
   136  133  136 1   
   137  133  138 1   
   138  134  135 2   
   139  134  142 1   
   140  136  139 1   
   141  136  140 1   
   142  136  141 1   
   143  142  143 1   
   144  142  147 1   
   145  143  144 1   
   146  143  146 1   
   147  143  148 1   
   148  144  145 2   
   149  144  152 1   
   150  146  149 1   
   151  146  150 1   
   152  146  151 1   
   153  152  153 1   
   154  152  161 1   
   155  153  154 1   
   156  153  156 1   
   157  153  162 1   
   158  154  155 2   
   159  154  167 1   
   160  156  157 1   
   161  156  163 1   
   162  156  164 1   
   163  157  158 1   
   164  157  165 1   
   165  157  166 1   
   166  158  159 1   
   167  158  160 1   
   168  167  168 1   
   169  167  172 1   
   170  168  169 1   
   171  168  170 1   
   172  168  171 1   
   173  174  175 1   
   174  174  176 1   
   175  177  178 1   
   176  177  179 1   
   177  180  181 1   
   178  180  182 1   
@<TRIPOS>SUBSTRUCTURE
     1 MOL         1 TEMP              0 ****  ****    0 ROOT
