@<TRIPOS>MOLECULE
MOL
  192   187     1     0     0
SMALL
resp


@<TRIPOS>ATOM
      1 C1          9.4410    0.3800    1.8910 c3        1 MOL     -0.512493
      2 C2          8.3200    0.1610    0.8310 c         1 MOL      0.820290
      3 O1          7.1680    0.1010    1.2220 o         1 MOL     -0.697496
      4 H1          9.0490    0.1590    2.8840 hc        1 MOL      0.123715
      5 H2         10.2790   -0.2830    1.6760 hc        1 MOL      0.123715
      6 H3          9.7780    1.4160    1.8560 hc        1 MOL      0.123715
      7 N1          8.7170    0.0430   -0.4370 n         1 MOL     -0.620819
      8 C3          7.7620   -0.1490   -1.5560 c3        1 MOL      0.224623
      9 C4          7.0950   -1.5030   -1.5890 c         1 MOL      0.470628
     10 O2          6.9000   -2.0910   -2.6580 o         1 MOL     -0.503365
     11 C5          8.3290    0.3680   -2.8970 c3        1 MOL     -0.042099
     12 C6          9.4350    1.4180   -2.8110 c         1 MOL      0.690509
     13 O3          9.0930    2.6080   -3.0070 o         1 MOL     -0.660208
     14 O4         10.5120    1.0780   -2.3470 o         1 MOL     -0.660208
     15 H4          9.6960    0.1880   -0.6490 hn        1 MOL      0.293398
     16 H5          6.9210    0.5120   -1.3310 h1        1 MOL      0.062528
     17 H6          7.5320    0.7870   -3.5120 hc        1 MOL     -0.010082
     18 H7          8.7560   -0.4690   -3.4460 hc        1 MOL     -0.010082
     19 N2          6.7640   -2.0900   -0.4460 n         1 MOL     -0.528655
     20 C7          6.1680   -3.4380   -0.3460 c3        1 MOL      0.381062
     21 C8          4.7240   -3.5880   -0.5930 c         1 MOL      0.445282
     22 O5          4.2930   -4.5430   -1.2150 o         1 MOL     -0.531186
     23 C9          6.5280   -4.0840    0.9720 c3        1 MOL     -0.254455
     24 C10         7.9550   -4.0940    1.4190 c3        1 MOL      0.262791
     25 C11         8.1850   -4.9020    2.6800 c3        1 MOL     -0.197539
     26 C12         9.6140   -4.6510    3.0780 c3        1 MOL      0.130389
     27 N3          9.8470   -5.5100    4.2490 n4        1 MOL     -0.178758
     28 H8          6.8440   -1.5590    0.4090 hn        1 MOL      0.283087
     29 H9          6.6170   -4.0200   -1.1540 h1        1 MOL      0.009079
     30 H10         6.2290   -5.1280    0.8410 hc        1 MOL      0.039638
     31 H11         5.8570   -3.6480    1.7070 hc        1 MOL      0.039638
     32 H12         8.3040   -3.0710    1.5510 hc        1 MOL     -0.046869
     33 H13         8.5270   -4.4540    0.5610 hc        1 MOL     -0.046869
     34 H14         8.0170   -5.9250    2.3270 hc        1 MOL      0.068062
     35 H15         7.4230   -4.6420    3.4230 hc        1 MOL      0.068062
     36 H16         9.6260   -3.6060    3.4210 hx        1 MOL      0.046690
     37 H17        10.3740   -4.7750    2.3100 hx        1 MOL      0.046690
     38 H18         9.8300   -6.5180    4.1720 hn        1 MOL      0.236679
     39 H19        10.7340   -5.2070    4.6250 hn        1 MOL      0.236679
     40 H20         9.1550   -5.2790    4.9400 hn        1 MOL      0.236679
     41 N4          3.8980   -2.6880   -0.0140 n         1 MOL     -0.423377
     42 C13         3.9550   -1.4640    0.7710 c3        1 MOL      0.120976
     43 C14         3.9450   -0.1690   -0.0690 c         1 MOL      0.155838
     44 O6          3.8570   -0.1980   -1.3330 o         1 MOL     -0.377338
     45 C15         2.7460   -1.4910    1.7080 c3        1 MOL     -0.362017
     46 C16         1.5060   -1.8580    1.0000 c         1 MOL      0.741846
     47 O7          0.9420   -1.0280    0.2620 o         1 MOL     -0.699168
     48 O8          1.2240   -3.0670    0.9360 o         1 MOL     -0.699168
     49 H21         2.9480   -2.9050   -0.2690 hn        1 MOL      0.386481
     50 H22         4.9270   -1.3620    1.2610 h1        1 MOL      0.080686
     51 H23         2.5700   -0.6110    2.3320 hc        1 MOL      0.068721
     52 H24         2.9420   -2.3160    2.3850 hc        1 MOL      0.068721
     53 N5          4.0040    0.9510    0.6230 n         1 MOL     -0.187504
     54 C17         4.0170    2.2800   -0.0050 c3        1 MOL      0.052210
     55 C18         2.7070    2.6700   -0.6520 c         1 MOL      0.437010
     56 O9          1.6910    2.0140   -0.5310 o         1 MOL     -0.438907
     57 H25         4.0450    0.9310    1.6280 hn        1 MOL      0.267438
     58 H26         4.8220    2.3230   -0.7300 h1        1 MOL      0.057171
     59 H27         4.3050    3.0580    0.7030 h1        1 MOL      0.057171
     60 N6          2.8170    3.8080   -1.4350 n         1 MOL     -0.419397
     61 C19         1.7440    4.6290   -1.9490 c3        1 MOL      0.158417
     62 C20         2.1230    6.0920   -2.0360 c         1 MOL      0.373606
     63 O10         3.2910    6.4470   -2.2730 o         1 MOL     -0.522237
     64 C21         1.3000    4.1500   -3.3600 c3        1 MOL     -0.256086
     65 C22         1.0770    2.6500   -3.4820 c         1 MOL      0.667202
     66 O11         1.9070    1.9970   -4.1510 o         1 MOL     -0.658029
     67 O12         0.0960    2.1570   -2.9250 o         1 MOL     -0.658029
     68 H28         3.7700    4.1310   -1.5480 hn        1 MOL      0.284448
     69 H29         0.8950    4.6220   -1.2650 h1        1 MOL      0.079722
     70 H30         2.0650    4.4590   -4.0780 hc        1 MOL      0.071908
     71 H31         0.4080    4.7180   -3.6160 hc        1 MOL      0.071908
     72 N7          1.2680    7.0520   -1.9630 n         1 MOL     -0.316492
     73 C23        -0.2390    7.0450   -1.9160 c3        1 MOL     -0.076571
     74 C24        -0.8180    6.5840   -0.5690 c         1 MOL      0.567764
     75 O13        -0.3900    7.0070    0.5400 o         1 MOL     -0.543428
     76 H32         1.6790    7.9730   -1.9700 hn        1 MOL      0.288999
     77 H33        -0.7320    6.6420   -2.7990 h1        1 MOL      0.074920
     78 H34        -0.5730    8.0690   -2.0770 h1        1 MOL      0.074920
     79 N8         -1.7800    5.6630   -0.6850 n         1 MOL     -0.607170
     80 C25        -2.4590    4.9860    0.4840 c3        1 MOL      0.032330
     81 C26        -1.5790    3.8250    0.8970 c         1 MOL      0.954394
     82 O14        -0.9200    3.1750    0.0780 o         1 MOL     -0.741045
     83 C27        -3.9340    4.7410    0.1790 c3        1 MOL      0.363993
     84 C28        -4.5990    4.1990    1.4520 c3        1 MOL     -0.417441
     85 O15        -4.0940    3.7410   -0.8630 oh        1 MOL     -0.639055
     86 H35        -2.0490    5.4190   -1.6230 hn        1 MOL      0.299228
     87 H36        -2.4030    5.6670    1.3360 h1        1 MOL      0.054413
     88 H37        -4.4490    5.6410   -0.1780 h1        1 MOL      0.026830
     89 H38        -4.4050    4.1270   -1.6820 ho        1 MOL      0.409525
     90 H39        -5.6830    4.1770    1.3500 hc        1 MOL      0.111630
     91 H40        -4.1730    3.2540    1.7850 hc        1 MOL      0.111630
     92 H41        -4.3290    4.9440    2.2160 hc        1 MOL      0.111630
     93 N9         -1.5220    3.5480    2.1620 n         1 MOL     -0.776031
     94 C29        -0.9180    2.4460    2.9450 c3        1 MOL      0.000563
     95 C30        -1.5640    1.0810    2.7110 c         1 MOL      0.824793
     96 O16        -1.5220    0.6820    1.6190 o         1 MOL     -0.678540
     97 C31         0.6480    2.4430    3.0040 c3        1 MOL      0.408690
     98 C32         1.2710    3.8650    3.0330 c3        1 MOL     -0.423387
     99 C33         1.0320    1.4480    4.1000 c3        1 MOL     -0.373225
    100 C34         2.8040    3.9020    3.3880 c3        1 MOL     -0.013308
    101 H42        -2.0090    4.3000    2.6290 hn        1 MOL      0.335694
    102 H43        -1.2200    2.6060    3.9860 h1        1 MOL      0.032979
    103 H44         1.0160    1.9800    2.0900 hc        1 MOL     -0.123518
    104 H45         0.7630    4.5970    3.6650 hc        1 MOL      0.138004
    105 H46         1.1350    4.1850    2.0090 hc        1 MOL      0.138004
    106 H47         0.4080    1.7430    4.9390 hc        1 MOL      0.083045
    107 H48         0.7720    0.4090    3.8720 hc        1 MOL      0.083045
    108 H49         2.0860    1.5410    4.3420 hc        1 MOL      0.083045
    109 H50         3.3890    3.1770    2.8090 hc        1 MOL      0.028999
    110 H51         3.2040    4.8970    3.2040 hc        1 MOL      0.028999
    111 H52         3.1150    3.7000    4.4150 hc        1 MOL      0.028999
    112 N10        -2.1130    0.4030    3.7160 n         1 MOL     -0.671994
    113 C35        -2.5610   -0.9910    3.6370 c3        1 MOL     -0.066421
    114 C36        -3.7820   -1.2970    2.7850 c         1 MOL      0.521045
    115 O17        -3.9670   -2.4360    2.3820 o         1 MOL     -0.539823
    116 C37        -2.8570   -1.5480    5.0330 c3        1 MOL      0.349071
    117 C38        -4.0420   -0.9260    5.8240 c3        1 MOL     -0.197904
    118 O18        -1.7180   -1.4480    5.8880 oh        1 MOL     -0.601282
    119 H53        -2.0820    0.8350    4.6380 hn        1 MOL      0.339899
    120 H54        -1.7230   -1.5730    3.2360 h1        1 MOL      0.127371
    121 H55        -3.0350   -2.6100    4.8660 h1        1 MOL     -0.004653
    122 H56        -1.0880   -1.9540    5.3770 ho        1 MOL      0.386817
    123 H57        -4.9660   -1.2740    5.3680 hc        1 MOL      0.066482
    124 H58        -4.0750   -1.1530    6.8850 hc        1 MOL      0.066482
    125 H59        -4.0040    0.1610    5.7080 hc        1 MOL      0.066482
    126 N11        -4.7720   -0.3680    2.6720 n         1 MOL      0.026065
    127 C39        -6.1430   -0.6670    2.2170 c3        1 MOL     -0.471297
    128 C40        -6.2970   -0.9170    0.6870 c         1 MOL      0.551000
    129 O19        -5.5900   -0.3270   -0.0670 o         1 MOL     -0.470771
    130 C41        -7.2630    0.3270    2.7370 c3        1 MOL      0.376346
    131 C42        -7.2530    0.2620    4.2900 c3        1 MOL     -0.483471
    132 O20        -6.8780    1.7330    2.3970 oh        1 MOL     -0.583290
    133 H60        -4.5500    0.5780    2.9450 hn        1 MOL      0.184169
    134 H61        -6.3900   -1.5990    2.7330 h1        1 MOL      0.153464
    135 H62        -8.2060    0.1270    2.2190 h1        1 MOL      0.042820
    136 H63        -7.6500    2.0240    1.9080 ho        1 MOL      0.373325
    137 H64        -8.2050    0.7400    4.5350 hc        1 MOL      0.126940
    138 H65        -7.1460   -0.7760    4.5970 hc        1 MOL      0.126940
    139 H66        -6.3580    0.7780    4.6380 hc        1 MOL      0.126940
    140 N12        -6.9350   -1.9950    0.2580 n         1 MOL     -0.439246
    141 C43        -6.9960   -2.5580   -1.1220 c3        1 MOL      0.132461
    142 C44        -5.6150   -2.6570   -1.8180 c         1 MOL      0.473078
    143 O21        -5.6000   -2.2610   -2.9770 o         1 MOL     -0.521239
    144 C45        -8.1090   -1.8510   -1.8930 c3        1 MOL     -0.108365
    145 C46        -9.4290   -1.7250   -1.1080 c3        1 MOL     -0.200175
    146 C47       -10.4150   -0.9510   -1.9340 c3        1 MOL     -0.005128
    147 C48       -11.7410   -0.9290   -1.1390 c3        1 MOL      0.001243
    148 N13       -12.6110    0.1270   -1.5910 n4        1 MOL     -0.008500
    149 H67        -7.4540   -2.4860    0.9700 hn        1 MOL      0.244826
    150 H68        -7.3990   -3.5500   -0.9020 h1        1 MOL      0.033724
    151 H69        -8.2300   -2.3820   -2.8400 hc        1 MOL      0.080426
    152 H70        -7.6960   -0.9000   -2.2130 hc        1 MOL      0.080426
    153 H71        -9.2870   -1.2490   -0.1350 hc        1 MOL      0.084088
    154 H72        -9.8550   -2.7190   -1.0640 hc        1 MOL      0.084088
    155 H73       -10.5110   -1.5040   -2.8620 hc        1 MOL      0.047676
    156 H74       -10.1610    0.0880   -2.1540 hc        1 MOL      0.047676
    157 H75       -11.5190   -0.8280   -0.0870 hx        1 MOL      0.056691
    158 H76       -12.3020   -1.8540   -1.3360 hx        1 MOL      0.056691
    159 H77       -12.8230   -0.0910   -2.5530 hn        1 MOL      0.134412
    160 H78       -13.5150    0.2140   -1.1430 hn        1 MOL      0.134412
    161 H79       -12.2250    1.0680   -1.5940 hn        1 MOL      0.134412
    162 N14        -4.5470   -3.1480   -1.1850 n         1 MOL     -0.457624
    163 C49        -3.2480   -3.4000   -1.8770 c3        1 MOL      0.243122
    164 C50        -2.1570   -2.9340   -0.9440 c         1 MOL      0.340461
    165 O22        -1.8700   -1.7520   -1.0730 o         1 MOL     -0.565209
    166 C51        -3.0590   -4.8140   -2.3900 c3        1 MOL     -0.028775
    167 C52        -3.7580   -4.9200   -3.7410 c3        1 MOL     -0.173927
    168 C53        -3.6450   -6.2970   -4.3770 c         1 MOL      0.678163
    169 O23        -2.6990   -6.5400   -5.1870 o         1 MOL     -0.600963
    170 O24        -4.3860   -7.2340   -4.0670 o         1 MOL     -0.600963
    171 H80        -4.5390   -3.4480   -0.2240 hn        1 MOL      0.301483
    172 H81        -3.1320   -2.7460   -2.7490 h1        1 MOL      0.117598
    173 H82        -3.5160   -5.4780   -1.6590 hc        1 MOL      0.032285
    174 H83        -2.0120   -5.0680   -2.4970 hc        1 MOL      0.032285
    175 H84        -3.5330   -4.0860   -4.4090 hc        1 MOL      0.022041
    176 H85        -4.7910   -4.7870   -3.4230 hc        1 MOL      0.022041
    177 N15        -1.5060   -3.6560   -0.0640 n         1 MOL     -0.299542
    178 C54        -1.7790   -5.0190    0.5070 c3        1 MOL      0.081864
    179 H86        -0.9380   -5.6780    0.2910 h1        1 MOL      0.013157
    180 H87        -1.9120   -4.9410    1.5860 h1        1 MOL      0.013157
    181 H88        -2.6840   -5.4270    0.0570 h1        1 MOL      0.013157
    182 H89        -0.7330   -3.1820    0.3940 hn        1 MOL      0.297620
    183 Ca1        -0.5600    0.6960   -0.8510 Ca        1 MOL      1.785127
    184 O25         1.5900   -0.2790   -2.3830 oh        1 MOL     -0.844921
    185 H90         2.4180   -0.2110   -1.9110 ho        1 MOL      0.395543
    186 H91         1.6590    0.3920   -3.0680 ho        1 MOL      0.395543
    187 O26        -3.2270    1.1950   -0.9040 oh        1 MOL     -0.844921
    188 H92        -3.8610    0.5700   -0.5640 ho        1 MOL      0.395543
    189 H93        -3.7510    1.8880   -1.2870 ho        1 MOL      0.395543
    190 O27        -2.0130    0.1900   -3.0920 oh        1 MOL     -0.844921
    191 H94        -2.3540   -0.5440   -3.5990 ho        1 MOL      0.395543
    192 H95        -2.7220    0.8360   -3.0940 ho        1 MOL      0.395543
@<TRIPOS>BOND
     1    1    2 1   
     2    1    4 1   
     3    1    5 1   
     4    1    6 1   
     5    2    3 2   
     6    2    7 1   
     7    7    8 1   
     8    7   15 1   
     9    8    9 1   
    10    8   11 1   
    11    8   16 1   
    12    9   10 2   
    13    9   19 1   
    14   11   12 1   
    15   11   17 1   
    16   11   18 1   
    17   12   13 1   
    18   12   14 1   
    19   19   20 1   
    20   19   28 1   
    21   20   21 1   
    22   20   23 1   
    23   20   29 1   
    24   21   22 2   
    25   21   41 1   
    26   23   24 1   
    27   23   30 1   
    28   23   31 1   
    29   24   25 1   
    30   24   32 1   
    31   24   33 1   
    32   25   26 1   
    33   25   34 1   
    34   25   35 1   
    35   26   27 1   
    36   26   36 1   
    37   26   37 1   
    38   27   38 1   
    39   27   39 1   
    40   27   40 1   
    41   41   42 1   
    42   41   49 1   
    43   42   43 1   
    44   42   45 1   
    45   42   50 1   
    46   43   44 2   
    47   43   53 1   
    48   45   46 1   
    49   45   51 1   
    50   45   52 1   
    51   46   47 1   
    52   46   48 1   
    53   53   54 1   
    54   53   57 1   
    55   54   55 1   
    56   54   58 1   
    57   54   59 1   
    58   55   56 2   
    59   55   60 1   
    60   60   61 1   
    61   60   68 1   
    62   61   62 1   
    63   61   64 1   
    64   61   69 1   
    65   62   63 2   
    66   62   72 1   
    67   64   65 1   
    68   64   70 1   
    69   64   71 1   
    70   65   66 1   
    71   65   67 1   
    72   72   73 1   
    73   72   76 1   
    74   73   74 1   
    75   73   77 1   
    76   73   78 1   
    77   74   75 2   
    78   74   79 1   
    79   79   80 1   
    80   79   86 1   
    81   80   81 1   
    82   80   83 1   
    83   80   87 1   
    84   81   82 2   
    85   81   93 1   
    86   83   84 1   
    87   83   85 1   
    88   83   88 1   
    89   84   90 1   
    90   84   91 1   
    91   84   92 1   
    92   85   89 1   
    93   93   94 1   
    94   93  101 1   
    95   94   95 1   
    96   94   97 1   
    97   94  102 1   
    98   95   96 2   
    99   95  112 1   
   100   97   98 1   
   101   97   99 1   
   102   97  103 1   
   103   98  100 1   
   104   98  104 1   
   105   98  105 1   
   106   99  106 1   
   107   99  107 1   
   108   99  108 1   
   109  100  109 1   
   110  100  110 1   
   111  100  111 1   
   112  112  113 1   
   113  112  119 1   
   114  113  114 1   
   115  113  116 1   
   116  113  120 1   
   117  114  115 2   
   118  114  126 1   
   119  116  117 1   
   120  116  118 1   
   121  116  121 1   
   122  117  123 1   
   123  117  124 1   
   124  117  125 1   
   125  118  122 1   
   126  126  127 1   
   127  126  133 1   
   128  127  128 1   
   129  127  130 1   
   130  127  134 1   
   131  128  129 2   
   132  128  140 1   
   133  130  131 1   
   134  130  132 1   
   135  130  135 1   
   136  131  137 1   
   137  131  138 1   
   138  131  139 1   
   139  132  136 1   
   140  140  141 1   
   141  140  149 1   
   142  141  142 1   
   143  141  144 1   
   144  141  150 1   
   145  142  143 2   
   146  142  162 1   
   147  144  145 1   
   148  144  151 1   
   149  144  152 1   
   150  145  146 1   
   151  145  153 1   
   152  145  154 1   
   153  146  147 1   
   154  146  155 1   
   155  146  156 1   
   156  147  148 1   
   157  147  157 1   
   158  147  158 1   
   159  148  159 1   
   160  148  160 1   
   161  148  161 1   
   162  162  163 1   
   163  162  171 1   
   164  163  164 1   
   165  163  166 1   
   166  163  172 1   
   167  164  165 2   
   168  164  177 1   
   169  166  167 1   
   170  166  173 1   
   171  166  174 1   
   172  167  168 1   
   173  167  175 1   
   174  167  176 1   
   175  168  169 1   
   176  168  170 1   
   177  177  178 1   
   178  177  182 1   
   179  178  179 1   
   180  178  180 1   
   181  178  181 1   
   182  184  185 1   
   183  184  186 1   
   184  187  188 1   
   185  187  189 1   
   186  190  191 1   
   187  190  192 1   
@<TRIPOS>SUBSTRUCTURE
     1 MOL         1 TEMP              0 ****  ****    0 ROOT
