@<TRIPOS>MOLECULE
MOL
  178   175     1     0     0
SMALL
resp


@<TRIPOS>ATOM
      1 C1          0.9560   -6.1680    3.1380 c3        1 MOL     -0.394079
      2 C2          2.3910   -5.7790    2.6480 c         1 MOL      0.659910
      3 O1          3.0060   -6.3840    1.7590 o         1 MOL     -0.579898
      4 H1          0.6600   -7.1130    2.6800 hc        1 MOL      0.101440
      5 H2          0.9580   -6.2750    4.2220 hc        1 MOL      0.101440
      6 H3          0.2500   -5.3890    2.8500 hc        1 MOL      0.101440
      7 N1          3.0360   -4.8470    3.2990 n         1 MOL     -0.590508
      8 C3          4.4090   -4.2910    2.9660 c3        1 MOL      0.303980
      9 C4          4.4060   -3.5920    1.6440 c         1 MOL      0.651252
     10 O2          3.5360   -2.7370    1.3330 o         1 MOL     -0.639424
     11 C5          4.8140   -3.2850    4.0380 c3        1 MOL     -0.424547
     12 C6          6.3030   -2.9520    4.0640 c         1 MOL      0.826384
     13 O3          6.7530   -2.0390    4.7670 o         1 MOL     -0.754311
     14 O4          7.0670   -3.6870    3.3900 o         1 MOL     -0.754311
     15 H4          2.6840   -4.4370    4.1610 hn        1 MOL      0.287685
     16 H5          5.1100   -5.1290    2.8830 h1        1 MOL      0.024041
     17 H6          4.5120   -3.6240    5.0270 hc        1 MOL      0.074705
     18 H7          4.4080   -2.3140    3.7700 hc        1 MOL      0.074705
     19 N2          5.3490   -3.9780    0.7400 n         1 MOL     -0.677422
     20 C7          5.3010   -3.5490   -0.6770 c3        1 MOL      0.447975
     21 C8          4.1970   -4.3190   -1.4530 c         1 MOL      0.432216
     22 O5          3.6990   -5.3030   -0.9400 o         1 MOL     -0.515683
     23 C9          6.6350   -3.8310   -1.3310 c3        1 MOL     -0.320431
     24 H8          5.9370   -4.7670    0.9660 hn        1 MOL      0.338794
     25 H9          5.1380   -2.4790   -0.8020 h1        1 MOL      0.105666
     26 H10         6.8840   -4.8950   -1.3330 hc        1 MOL      0.068060
     27 H11         6.5970   -3.4040   -2.3380 hc        1 MOL      0.068060
     28 H12         7.3950   -3.2960   -0.7590 hc        1 MOL      0.068060
     29 N3          3.8230   -3.9880   -2.7140 n         1 MOL     -0.458969
     30 C10         4.1700   -2.7610   -3.4910 c3        1 MOL      0.040903
     31 C11         4.1480   -1.4480   -2.6640 c         1 MOL      0.180771
     32 O6          3.3050   -1.2630   -1.7650 o         1 MOL     -0.431261
     33 C12         3.2420   -2.6100   -4.6810 c3        1 MOL     -0.285260
     34 C13         1.6710   -2.5730   -4.3880 c         1 MOL      0.812787
     35 O7          0.8900   -3.2960   -5.0320 o         1 MOL     -0.717619
     36 O8          1.2560   -1.6720   -3.6500 o         1 MOL     -0.717619
     37 H13         3.0520   -4.5940   -2.9510 hn        1 MOL      0.300654
     38 H14         5.1840   -2.8870   -3.8670 h1        1 MOL      0.092315
     39 H15         3.5020   -3.3630   -5.4240 hc        1 MOL      0.064805
     40 H16         3.3910   -1.6330   -5.1500 hc        1 MOL      0.064805
     41 N4          5.0000   -0.4440   -3.0770 n         1 MOL     -0.285102
     42 C14         5.1200    0.7800   -2.3020 c3        1 MOL     -0.007089
     43 C15         6.3590    0.7850   -1.3590 c         1 MOL      0.625010
     44 O9          6.9770   -0.2110   -1.1220 o         1 MOL     -0.551604
     45 H17         5.5360   -0.5370   -3.9280 hn        1 MOL      0.273557
     46 H18         4.3070    1.0880   -1.6440 h1        1 MOL      0.071028
     47 H19         5.2980    1.5340   -3.0720 h1        1 MOL      0.071028
     48 N5          6.7680    1.9010   -0.7590 n         1 MOL     -0.577398
     49 C16         6.1390    3.2630   -0.8490 c3        1 MOL      0.002907
     50 C17         5.9420    3.8740    0.5690 c         1 MOL      0.690840
     51 O10         6.1260    5.0500    0.8020 o         1 MOL     -0.532744
     52 C18         7.0200    4.2250   -1.7680 c3        1 MOL     -0.467539
     53 C19         6.9780    3.8310   -3.1910 c         1 MOL      0.779767
     54 N6          5.8590    4.0240   -3.8250 n         1 MOL     -0.750680
     55 O11         7.9350    3.5830   -3.9310 o         1 MOL     -0.595556
     56 H20         7.5750    1.8840   -0.1490 hn        1 MOL      0.344225
     57 H21         5.1560    3.1870   -1.3060 h1        1 MOL      0.066602
     58 H22         8.0610    4.1210   -1.4690 hc        1 MOL      0.144192
     59 H23         6.8140    5.3040   -1.7220 hc        1 MOL      0.144192
     60 H24         5.0860    4.4900   -3.3640 hn        1 MOL      0.345777
     61 H25         5.8430    3.9900   -4.8320 hn        1 MOL      0.345777
     62 N7          5.5410    3.0660    1.5320 n         1 MOL     -0.440443
     63 C20         5.1070    3.4100    2.9020 c3        1 MOL     -0.131451
     64 C21         3.9160    4.3760    3.1090 c         1 MOL      0.512636
     65 O12         3.8270    5.1270    4.0670 o         1 MOL     -0.528483
     66 H26         5.4870    2.0540    1.4280 hn        1 MOL      0.310604
     67 H27         5.9850    3.8780    3.3380 h1        1 MOL      0.109422
     68 H28         5.0760    2.4950    3.4980 h1        1 MOL      0.109422
     69 N8          3.0680    4.3030    2.1240 n         1 MOL     -0.325554
     70 C22         1.7300    4.9310    2.1310 c3        1 MOL      0.097264
     71 C23         0.5670    3.9570    1.7250 c         1 MOL      0.340791
     72 O13         0.8080    2.7900    1.2640 o         1 MOL     -0.504653
     73 C24         1.6490    6.1570    1.1600 c3        1 MOL      0.371369
     74 C25         2.7780    7.1210    1.4350 c3        1 MOL     -0.442926
     75 O14         1.8290    5.6890   -0.1330 oh        1 MOL     -0.575694
     76 H29         3.3340    3.5560    1.4970 hn        1 MOL      0.224275
     77 H30         1.4650    5.4380    3.0540 h1        1 MOL      0.032379
     78 H31         0.7390    6.7490    1.2330 h1        1 MOL     -0.012153
     79 H32         1.2440    6.2350   -0.6650 ho        1 MOL      0.385513
     80 H33         3.7900    6.7260    1.4760 hc        1 MOL      0.106317
     81 H34         2.7980    7.8580    0.6330 hc        1 MOL      0.106317
     82 H35         2.5640    7.6610    2.3560 hc        1 MOL      0.106317
     83 N9         -0.6610    4.4180    1.7390 n         1 MOL     -0.221617
     84 C26        -1.8670    3.7230    1.4340 c3        1 MOL     -0.122746
     85 C27        -2.1820    3.7610   -0.0620 c         1 MOL      0.575274
     86 O15        -2.0930    4.8350   -0.5310 o         1 MOL     -0.611312
     87 C28        -3.1520    4.2280    2.2400 c3        1 MOL      0.102974
     88 C29        -4.4430    3.2870    2.0680 c3        1 MOL      0.174302
     89 C30        -2.8410    4.2300    3.7770 c3        1 MOL     -0.366501
     90 C31        -5.6990    4.0450    2.3850 c3        1 MOL     -0.122981
     91 H36        -0.7230    5.3750    2.0520 hn        1 MOL      0.211619
     92 H37        -1.6450    2.6930    1.6890 h1        1 MOL      0.124135
     93 H38        -3.3400    5.2620    1.9430 hc        1 MOL      0.024960
     94 H39        -4.4070    2.4310    2.7480 hc        1 MOL     -0.061487
     95 H40        -4.5960    2.9200    1.0450 hc        1 MOL     -0.061487
     96 H41        -2.3880    3.2500    3.9610 hc        1 MOL      0.087484
     97 H42        -2.0710    4.9420    4.0630 hc        1 MOL      0.087484
     98 H43        -3.7880    4.3840    4.2830 hc        1 MOL      0.087484
     99 H44        -5.6520    4.6550    3.2910 hc        1 MOL      0.014774
    100 H45        -5.7960    4.6890    1.5020 hc        1 MOL      0.014774
    101 H46        -6.4920    3.2970    2.3430 hc        1 MOL      0.014774
    102 N10        -2.4800    2.6340   -0.6400 n         1 MOL     -0.356719
    103 C32        -2.9570    2.5810   -2.1100 c3        1 MOL      0.029597
    104 C33        -4.1570    1.6580   -2.3740 c         1 MOL      0.343164
    105 O16        -4.6510    1.7480   -3.4470 o         1 MOL     -0.505087
    106 C34        -1.8160    2.1880   -3.0670 c3        1 MOL      0.101949
    107 C35        -1.0100    0.9660   -2.6080 c         1 MOL      0.686904
    108 O17         0.1350    1.2000   -2.1120 o         1 MOL     -0.767565
    109 O18        -1.5290   -0.1550   -2.7620 o         1 MOL     -0.767565
    110 H47        -2.4690    1.8170   -0.0380 hn        1 MOL      0.317339
    111 H48        -3.2350    3.5790   -2.4310 h1        1 MOL      0.080266
    112 H49        -1.2360    3.0740   -3.3150 hc        1 MOL     -0.019646
    113 H50        -2.2780    2.0480   -4.0370 hc        1 MOL     -0.019646
    114 N11        -4.6460    0.8610   -1.4060 n         1 MOL     -0.303796
    115 C36        -5.9730    0.2490   -1.5690 c3        1 MOL      0.387846
    116 C37        -6.1000   -1.1040   -0.7220 c         1 MOL      0.222244
    117 O19        -6.9090   -1.2180    0.2340 o         1 MOL     -0.483856
    118 C38        -6.9860    1.2490   -1.0590 c3        1 MOL     -0.231430
    119 C39        -8.4730    1.1020   -1.6080 ca        1 MOL      0.002558
    120 C40        -9.4340    0.4100   -0.8990 ca        1 MOL     -0.127951
    121 C41        -8.7360    1.5510   -2.9660 ca        1 MOL     -0.127951
    122 C42       -10.6920    0.2550   -1.4970 ca        1 MOL     -0.088914
    123 C43       -10.0110    1.2590   -3.5250 ca        1 MOL     -0.088914
    124 C44       -11.0500    0.7010   -2.7560 ca        1 MOL     -0.170288
    125 H51        -4.1320    0.7110   -0.5380 hn        1 MOL      0.208162
    126 H52        -6.2370    0.1780   -2.6250 h1        1 MOL     -0.012834
    127 H53        -6.6820    2.2590   -1.3470 hc        1 MOL      0.086973
    128 H54        -6.9160    1.2030    0.0290 hc        1 MOL      0.086973
    129 H55        -9.1550    0.1290    0.1020 ha        1 MOL      0.116626
    130 H56        -7.9340    2.0080   -3.5200 ha        1 MOL      0.116626
    131 H57       -11.4620   -0.3350   -1.0400 ha        1 MOL      0.082720
    132 H58       -10.1600    1.6650   -4.5090 ha        1 MOL      0.082720
    133 H59       -12.0370    0.5440   -3.1510 ha        1 MOL      0.116788
    134 N12        -5.2320   -2.0650   -1.0190 n         1 MOL     -0.022443
    135 C45        -5.2040   -3.3620   -0.3190 c3        1 MOL     -0.060592
    136 C46        -4.9640   -3.3200    1.2470 c         1 MOL      0.239364
    137 O20        -5.3390   -4.2280    1.9980 o         1 MOL     -0.486088
    138 C47        -4.1210   -4.1770   -1.0660 c3        1 MOL     -0.058687
    139 C48        -4.1590   -3.6390   -2.4880 c3        1 MOL     -0.055015
    140 C49        -4.3250   -2.1300   -2.1980 c3        1 MOL      0.001676
    141 H60        -6.1760   -3.8180   -0.4710 h1        1 MOL      0.088196
    142 H61        -3.1780   -3.9440   -0.5810 hc        1 MOL      0.059497
    143 H62        -4.2700   -5.2530   -1.1430 hc        1 MOL      0.059497
    144 H63        -3.2850   -3.9020   -3.0790 hc        1 MOL      0.019216
    145 H64        -5.1120   -3.8610   -2.9730 hc        1 MOL      0.019216
    146 H65        -3.3540   -1.6960   -2.0050 h1        1 MOL      0.073103
    147 H66        -4.8400   -1.6260   -3.0130 h1        1 MOL      0.073103
    148 N13        -4.4180   -2.1940    1.7630 n         1 MOL      0.004268
    149 C50        -4.2440   -1.9680    3.2210 c3        1 MOL     -0.285858
    150 C51        -5.6050   -1.8120    3.8970 c         1 MOL      0.571412
    151 O21        -5.8130   -2.3740    4.9800 o         1 MOL     -0.547195
    152 C52        -3.3370   -0.6670    3.4120 c3        1 MOL      0.133043
    153 C53        -1.9390   -0.5810    2.7390 c3        1 MOL     -0.132634
    154 C54        -2.0760   -0.4580    1.2050 c         1 MOL      0.621025
    155 O22        -1.2440   -1.0370    0.4310 o         1 MOL     -0.729644
    156 O23        -3.0380    0.1220    0.7320 o         1 MOL     -0.729644
    157 H67        -4.1340   -1.5390    1.0480 hn        1 MOL      0.240491
    158 H68        -3.7790   -2.8400    3.6900 h1        1 MOL      0.125906
    159 H69        -3.1720   -0.5600    4.4810 hc        1 MOL     -0.021096
    160 H70        -3.9720    0.1540    3.0860 hc        1 MOL     -0.021096
    161 H71        -1.3180   -1.4350    2.9670 hc        1 MOL      0.040014
    162 H72        -1.4070    0.2940    3.1240 hc        1 MOL      0.040014
    163 N14        -6.4510   -0.9520    3.2770 n         1 MOL     -0.216831
    164 C55        -7.7390   -0.7470    3.8750 c3        1 MOL     -0.270705
    165 H73        -8.3660   -1.6190    3.6910 h1        1 MOL      0.098681
    166 H74        -7.6220   -0.6030    4.9480 h1        1 MOL      0.098681
    167 H75        -8.2070    0.1350    3.4380 h1        1 MOL      0.098681
    168 H76        -6.2320   -0.5670    2.3640 hn        1 MOL      0.257546
    169 Ca1         0.4770   -1.3130   -1.3510 Ca        1 MOL      1.745612
    170 O24         1.6040    0.1820    0.5090 oh        1 MOL     -0.853943
    171 H77         1.0900    0.8990    0.8610 ho        1 MOL      0.420325
    172 H78         2.5040    0.3780    0.7530 ho        1 MOL      0.420325
    173 O25        -0.8380   -3.5200   -1.9930 oh        1 MOL     -0.853943
    174 O26         1.5480   -3.5740   -0.2820 oh        1 MOL     -0.853943
    175 H79        -0.5380   -4.4220   -2.1160 ho        1 MOL      0.420325
    176 H80         1.8210   -4.4820   -0.3860 ho        1 MOL      0.420325
    177 H81        -1.4700   -3.3790   -2.6920 ho        1 MOL      0.420325
    178 H82         1.8560   -3.3250    0.5900 ho        1 MOL      0.420325
@<TRIPOS>BOND
     1    1    2 1   
     2    1    4 1   
     3    1    5 1   
     4    1    6 1   
     5    2    3 2   
     6    2    7 1   
     7    7    8 1   
     8    7   15 1   
     9    8    9 1   
    10    8   11 1   
    11    8   16 1   
    12    9   10 2   
    13    9   19 1   
    14   11   12 1   
    15   11   17 1   
    16   11   18 1   
    17   12   13 1   
    18   12   14 1   
    19   19   20 1   
    20   19   24 1   
    21   20   21 1   
    22   20   23 1   
    23   20   25 1   
    24   21   22 2   
    25   21   29 1   
    26   23   26 1   
    27   23   27 1   
    28   23   28 1   
    29   29   30 1   
    30   29   37 1   
    31   30   31 1   
    32   30   33 1   
    33   30   38 1   
    34   31   32 2   
    35   31   41 1   
    36   33   34 1   
    37   33   39 1   
    38   33   40 1   
    39   34   35 1   
    40   34   36 1   
    41   41   42 1   
    42   41   45 1   
    43   42   43 1   
    44   42   46 1   
    45   42   47 1   
    46   43   44 2   
    47   43   48 1   
    48   48   49 1   
    49   48   56 1   
    50   49   50 1   
    51   49   52 1   
    52   49   57 1   
    53   50   51 2   
    54   50   62 1   
    55   52   53 1   
    56   52   58 1   
    57   52   59 1   
    58   53   54 1   
    59   53   55 2   
    60   54   60 1   
    61   54   61 1   
    62   62   63 1   
    63   62   66 1   
    64   63   64 1   
    65   63   67 1   
    66   63   68 1   
    67   64   65 2   
    68   64   69 1   
    69   69   70 1   
    70   69   76 1   
    71   70   71 1   
    72   70   73 1   
    73   70   77 1   
    74   71   72 2   
    75   71   83 1   
    76   73   74 1   
    77   73   75 1   
    78   73   78 1   
    79   74   80 1   
    80   74   81 1   
    81   74   82 1   
    82   75   79 1   
    83   83   84 1   
    84   83   91 1   
    85   84   85 1   
    86   84   87 1   
    87   84   92 1   
    88   85   86 2   
    89   85  102 1   
    90   87   88 1   
    91   87   89 1   
    92   87   93 1   
    93   88   90 1   
    94   88   94 1   
    95   88   95 1   
    96   89   96 1   
    97   89   97 1   
    98   89   98 1   
    99   90   99 1   
   100   90  100 1   
   101   90  101 1   
   102  102  103 1   
   103  102  110 1   
   104  103  104 1   
   105  103  106 1   
   106  103  111 1   
   107  104  105 2   
   108  104  114 1   
   109  106  107 1   
   110  106  112 1   
   111  106  113 1   
   112  107  108 1   
   113  107  109 1   
   114  114  115 1   
   115  114  125 1   
   116  115  116 1   
   117  115  118 1   
   118  115  126 1   
   119  116  117 2   
   120  116  134 1   
   121  118  119 1   
   122  118  127 1   
   123  118  128 1   
   124  119  120 ar  
   125  119  121 ar  
   126  120  122 ar  
   127  120  129 1   
   128  121  123 ar  
   129  121  130 1   
   130  122  124 ar  
   131  122  131 1   
   132  123  124 ar  
   133  123  132 1   
   134  124  133 1   
   135  134  135 1   
   136  134  140 1   
   137  135  136 1   
   138  135  138 1   
   139  135  141 1   
   140  136  137 2   
   141  136  148 1   
   142  138  139 1   
   143  138  142 1   
   144  138  143 1   
   145  139  140 1   
   146  139  144 1   
   147  139  145 1   
   148  140  146 1   
   149  140  147 1   
   150  148  149 1   
   151  148  157 1   
   152  149  150 1   
   153  149  152 1   
   154  149  158 1   
   155  150  151 2   
   156  150  163 1   
   157  152  153 1   
   158  152  159 1   
   159  152  160 1   
   160  153  154 1   
   161  153  161 1   
   162  153  162 1   
   163  154  155 1   
   164  154  156 1   
   165  163  164 1   
   166  163  168 1   
   167  164  165 1   
   168  164  166 1   
   169  164  167 1   
   170  170  171 1   
   171  170  172 1   
   172  173  175 1   
   173  173  177 1   
   174  174  176 1   
   175  174  178 1   
@<TRIPOS>SUBSTRUCTURE
     1 MOL         1 TEMP              0 ****  ****    0 ROOT
