@<TRIPOS>MOLECULE
MOL
  198   191     1     0     0
SMALL
resp


@<TRIPOS>ATOM
      1 C1         -3.5670    1.9730    4.4380 c3        1 MOL     -0.441490
      2 C2         -4.8860    1.3560    4.0380 c         1 MOL      0.644641
      3 O1         -5.1410    0.1230    3.8680 o         1 MOL     -0.611470
      4 H1         -3.7030    2.5650    5.3430 hc        1 MOL      0.126744
      5 H2         -2.8390    1.1850    4.6250 hc        1 MOL      0.126744
      6 H3         -3.2080    2.6160    3.6340 hc        1 MOL      0.126744
      7 N1         -5.9730    2.1330    3.9920 n         1 MOL     -0.502460
      8 C3         -7.2070    1.7140    3.2630 c3        1 MOL      0.097253
      9 C4         -6.9880    1.1210    1.8310 c         1 MOL      0.477405
     10 O2         -6.1390    1.5160    1.0540 o         1 MOL     -0.596203
     11 C5         -8.1430    2.9450    3.0500 c3        1 MOL     -0.065357
     12 C6         -7.4910    4.2580    2.5670 c         1 MOL      0.596026
     13 O3         -6.3950    4.2640    2.0410 o         1 MOL     -0.654456
     14 O4         -8.1180    5.3160    2.7440 o         1 MOL     -0.654456
     15 H4         -5.7820    3.1170    4.1650 hn        1 MOL      0.310203
     16 H5         -7.7430    0.9790    3.8570 h1        1 MOL      0.036745
     17 H6         -8.6240    3.0940    4.0190 hc        1 MOL      0.018253
     18 H7         -8.8870    2.7050    2.2910 hc        1 MOL      0.018253
     19 N2         -7.6950    0.0540    1.4790 n         1 MOL     -0.364495
     20 C7         -7.3170   -0.9550    0.4830 c3        1 MOL      0.146934
     21 C8         -7.8670   -0.5330   -0.8680 c         1 MOL      0.613940
     22 O5         -8.2000   -1.3800   -1.6790 o         1 MOL     -0.596915
     23 C9         -7.6720   -2.4390    0.9120 c3        1 MOL     -0.250626
     24 C10        -7.0340   -2.7580    2.2700 c3        1 MOL      0.205259
     25 C11        -7.5000   -4.1500    2.8130 c3        1 MOL      0.009161
     26 C12        -6.6270   -4.5520    4.0210 c3        1 MOL     -0.331800
     27 N3         -5.1710   -4.7230    3.7890 n4        1 MOL     -0.223112
     28 H8         -8.4610   -0.2490    2.0630 hn        1 MOL      0.240441
     29 H9         -6.2470   -0.9910    0.2670 h1        1 MOL      0.119659
     30 H10        -7.2820   -3.1750    0.2160 hc        1 MOL      0.050894
     31 H11        -8.7570   -2.5470    0.8640 hc        1 MOL      0.050894
     32 H12        -7.2680   -2.0820    3.0960 hc        1 MOL     -0.017611
     33 H13        -5.9550   -2.7250    2.1610 hc        1 MOL     -0.017611
     34 H14        -7.3860   -4.8960    2.0240 hc        1 MOL      0.050919
     35 H15        -8.5300   -4.2310    3.1340 hc        1 MOL      0.050919
     36 H16        -7.0460   -5.4250    4.5190 hx        1 MOL      0.169366
     37 H17        -6.7100   -3.7030    4.7060 hx        1 MOL      0.169366
     38 H18        -4.7890   -3.7860    3.7980 hn        1 MOL      0.273137
     39 H19        -4.8490   -5.3590    4.5050 hn        1 MOL      0.273137
     40 H20        -5.0750   -5.2670    2.9410 hn        1 MOL      0.273137
     41 N4         -8.0270    0.7820   -1.0890 n         1 MOL     -0.522679
     42 C13        -8.4530    1.4140   -2.3870 c3        1 MOL      0.408212
     43 C14        -7.1830    1.8560   -3.1150 c         1 MOL      0.234405
     44 O6         -6.2500    2.4510   -2.4540 o         1 MOL     -0.588928
     45 C15        -9.4590    2.5640   -2.1370 c3        1 MOL     -0.358455
     46 C16        -9.2270    3.2250   -0.7490 c         1 MOL      0.727176
     47 O7        -10.1930    3.4940   -0.0410 o         1 MOL     -0.627762
     48 O8         -8.0560    3.5940   -0.4220 o         1 MOL     -0.627762
     49 H21        -7.4060    1.3530   -0.5280 hn        1 MOL      0.145448
     50 H22        -9.0320    0.7510   -3.0350 h1        1 MOL      0.075392
     51 H23       -10.4260    2.0770   -2.1040 hc        1 MOL      0.072849
     52 H24        -9.5560    3.3380   -2.8920 hc        1 MOL      0.072849
     53 N5         -7.0350    1.6560   -4.4380 n         1 MOL     -0.333053
     54 C17        -7.7330    0.7080   -5.3090 c3        1 MOL     -0.236450
     55 C18        -7.3550   -0.7490   -5.0650 c         1 MOL      0.556454
     56 O9         -7.8980   -1.5960   -5.7380 o         1 MOL     -0.550583
     57 H25        -6.2470    2.0710   -4.9140 hn        1 MOL      0.329686
     58 H26        -7.5510    0.8970   -6.3590 h1        1 MOL      0.120248
     59 H27        -8.8090    0.7420   -5.1160 h1        1 MOL      0.120248
     60 N6         -6.4160   -1.0080   -4.1940 n         1 MOL     -0.212475
     61 C19        -5.7960   -2.2060   -3.7500 c3        1 MOL     -0.044159
     62 C20        -5.0770   -1.9310   -2.3620 c         1 MOL      0.183522
     63 O10        -4.9440   -0.7340   -1.9760 o         1 MOL     -0.325177
     64 C21        -4.6820   -2.7760   -4.7250 c3        1 MOL     -0.168084
     65 C22        -3.5370   -1.8290   -4.9120 c         1 MOL      0.676263
     66 O11        -2.4530   -2.0350   -4.3060 o         1 MOL     -0.660554
     67 O12        -3.6080   -0.7920   -5.6820 o         1 MOL     -0.660554
     68 H28        -6.1000   -0.2290   -3.6270 hn        1 MOL      0.224964
     69 H29        -6.5510   -2.9760   -3.6350 h1        1 MOL      0.105706
     70 H30        -5.1820   -3.0310   -5.6540 hc        1 MOL      0.046644
     71 H31        -4.1960   -3.6880   -4.3660 hc        1 MOL      0.046644
     72 N7         -4.6990   -3.0120   -1.6800 n         1 MOL     -0.200630
     73 C23        -4.1440   -2.9730   -0.3120 c3        1 MOL      0.046916
     74 C24        -2.7670   -3.6080   -0.1910 c         1 MOL      0.575322
     75 O13        -2.3830   -4.2900   -1.1770 o         1 MOL     -0.493359
     76 H32        -4.8300   -3.8610   -2.2040 hn        1 MOL      0.245547
     77 H33        -4.8300   -3.5250    0.3350 h1        1 MOL      0.001573
     78 H34        -4.1180   -1.9340   -0.0080 h1        1 MOL      0.001573
     79 N8         -2.1020   -3.2740    0.9230 n         1 MOL     -0.453492
     80 C25        -0.7540   -3.7670    1.2510 c3        1 MOL     -0.066355
     81 C26        -0.2120   -2.6760    2.1750 c         1 MOL      0.639785
     82 O14        -0.8560   -1.8750    2.8630 o         1 MOL     -0.514255
     83 C27        -0.8740   -5.1380    2.0170 c3        1 MOL      0.294887
     84 C28        -1.6140   -5.3240    3.3750 c3        1 MOL     -0.112332
     85 O15        -1.2160   -6.1730    1.1940 oh        1 MOL     -0.636986
     86 H35        -2.5580   -2.5920    1.5010 hn        1 MOL      0.250076
     87 H36        -0.1900   -3.9500    0.3270 h1        1 MOL      0.141853
     88 H37         0.0770   -5.4340    2.4650 h1        1 MOL     -0.028210
     89 H38        -0.7950   -6.9840    1.4970 ho        1 MOL      0.429605
     90 H39        -1.0660   -4.7690    4.1370 hc        1 MOL      0.016071
     91 H40        -2.5780   -4.8360    3.3670 hc        1 MOL      0.016071
     92 H41        -1.7710   -6.3550    3.6790 hc        1 MOL      0.016071
     93 N9          1.1410   -2.6940    2.2400 n         1 MOL     -0.526703
     94 C29         2.0010   -1.7680    2.9860 c3        1 MOL     -0.039894
     95 C30         3.0150   -1.2060    1.9380 c         1 MOL      0.640845
     96 O16         3.4510   -0.0360    2.0290 o         1 MOL     -0.554251
     97 C31         2.7020   -2.4320    4.1030 c3        1 MOL      0.133070
     98 C32         1.6970   -3.2580    5.0260 c3        1 MOL      0.135335
     99 C33         3.5680   -1.4860    4.9510 c3        1 MOL     -0.400206
    100 C34         2.1310   -3.6380    6.4410 c3        1 MOL     -0.343131
    101 H42         1.4780   -3.5460    1.8040 hn        1 MOL      0.249421
    102 H43         1.4500   -0.9020    3.3620 h1        1 MOL      0.109280
    103 H44         3.2920   -3.2210    3.6300 hc        1 MOL     -0.031210
    104 H45         1.4030   -4.1650    4.5010 hc        1 MOL      0.004036
    105 H46         0.7750   -2.6890    5.1530 hc        1 MOL      0.004036
    106 H47         4.0800   -0.8540    4.2330 hc        1 MOL      0.113896
    107 H48         2.9090   -0.8990    5.6010 hc        1 MOL      0.113896
    108 H49         4.3410   -1.9710    5.5440 hc        1 MOL      0.113896
    109 H50         2.2500   -2.7430    7.0490 hc        1 MOL      0.086807
    110 H51         1.3990   -4.3980    6.7100 hc        1 MOL      0.086807
    111 H52         3.0920   -4.1620    6.4860 hc        1 MOL      0.086807
    112 N10         3.4220   -2.0690    0.9980 n         1 MOL     -0.458344
    113 C35         4.3430   -1.7080   -0.1110 c3        1 MOL     -0.038546
    114 C36         5.4980   -2.6990   -0.3950 c         1 MOL      0.567202
    115 O17         5.2340   -3.9400   -0.4320 o         1 MOL     -0.548349
    116 C37         3.6380   -1.3290   -1.4790 c3        1 MOL      0.373347
    117 C38         2.7710   -2.4650   -1.9400 c3        1 MOL     -0.270439
    118 O18         2.8240   -0.2920   -1.0610 oh        1 MOL     -0.575253
    119 H53         2.8480   -2.8980    0.8990 hn        1 MOL      0.281489
    120 H54         4.9170   -0.7990    0.1130 h1        1 MOL      0.044679
    121 H55         4.3480   -1.0070   -2.2310 h1        1 MOL     -0.010287
    122 H56         3.4350    0.2920   -0.5960 ho        1 MOL      0.374712
    123 H57         2.2000   -2.8480   -1.0910 hc        1 MOL      0.087043
    124 H58         2.1410   -2.0370   -2.7210 hc        1 MOL      0.087043
    125 H59         3.4110   -3.2090   -2.4240 hc        1 MOL      0.087043
    126 N11         6.7110   -2.1920   -0.6360 n         1 MOL     -0.429585
    127 C39         7.8810   -3.0890   -0.7880 c3        1 MOL     -0.289381
    128 C40         9.1990   -2.3840   -0.7760 c         1 MOL      0.702805
    129 O19        10.1780   -2.9150   -0.1850 o         1 MOL     -0.555821
    130 C41         7.7830   -3.8590   -2.1300 c3        1 MOL      0.299465
    131 C42         8.9080   -4.7080   -2.4470 c3        1 MOL     -0.391331
    132 O20         7.7340   -2.9750   -3.2280 oh        1 MOL     -0.645823
    133 H60         6.8040   -1.1970   -0.7390 hn        1 MOL      0.275239
    134 H61         7.7940   -3.7520    0.0730 h1        1 MOL      0.182709
    135 H62         6.8710   -4.4630   -2.1320 h1        1 MOL      0.075750
    136 H63         6.9980   -3.2110   -3.7900 ho        1 MOL      0.417455
    137 H64         8.5590   -5.5030   -3.1020 hc        1 MOL      0.108662
    138 H65         9.7770   -4.2160   -2.8740 hc        1 MOL      0.108662
    139 H66         9.2290   -5.2370   -1.5450 hc        1 MOL      0.108662
    140 N12         9.2250   -1.1030   -1.2310 n         1 MOL     -0.414308
    141 C43        10.3260   -0.1810   -0.9820 c3        1 MOL     -0.145740
    142 C44         9.8280    1.2320   -1.0600 c         1 MOL      0.616947
    143 O21         9.0170    1.5110   -1.9610 o         1 MOL     -0.515323
    144 C45        11.4870   -0.5030   -1.9930 c3        1 MOL     -0.047442
    145 C46        12.8710    0.0710   -1.4840 c3        1 MOL      0.017465
    146 C47        13.9810   -0.0960   -2.5660 c3        1 MOL     -0.344285
    147 C48        15.2630    0.6700   -2.1730 c3        1 MOL      0.330426
    148 N13        16.3820    0.4110   -3.0900 n4        1 MOL     -0.380882
    149 H67         8.3980   -0.6850   -1.6060 hn        1 MOL      0.282014
    150 H68        10.6830   -0.3880    0.0290 h1        1 MOL      0.078531
    151 H69        11.2500   -0.0240   -2.9510 hc        1 MOL      0.077441
    152 H70        11.6220   -1.5700   -2.1490 hc        1 MOL      0.077441
    153 H71        13.1430   -0.4940   -0.5870 hc        1 MOL      0.041819
    154 H72        12.6200    1.1140   -1.3000 hc        1 MOL      0.041819
    155 H73        13.6570    0.3890   -3.4810 hc        1 MOL      0.104430
    156 H74        14.1650   -1.1760   -2.5950 hc        1 MOL      0.104430
    157 H75        15.4640    0.4070   -1.1390 hx        1 MOL      0.011580
    158 H76        15.1010    1.7480   -2.0780 hx        1 MOL      0.011580
    159 H77        16.1810    0.7580   -4.0090 hn        1 MOL      0.285445
    160 H78        17.2100    0.8900   -2.7520 hn        1 MOL      0.285445
    161 H79        16.5660   -0.5840   -3.1970 hn        1 MOL      0.285445
    162 N14        10.3090    2.0910   -0.1820 n         1 MOL     -0.364219
    163 C49         9.8030    3.4820   -0.1010 c3        1 MOL      0.155559
    164 C50         8.3480    3.5400    0.3900 c         1 MOL      0.223709
    165 O22         7.5150    4.1050   -0.3050 o         1 MOL     -0.491316
    166 C51        10.7100    4.2130    0.8900 c3        1 MOL     -0.038081
    167 C52        10.5920    5.7260    0.9720 c3        1 MOL     -0.208856
    168 C53        11.5630    6.3960    1.9940 c         1 MOL      0.663297
    169 O23        11.1540    7.3740    2.7340 o         1 MOL     -0.654618
    170 O24        12.7570    5.9300    2.0130 o         1 MOL     -0.654618
    171 H80        10.9320    1.8490    0.5780 hn        1 MOL      0.216492
    172 H81         9.9490    3.8300   -1.1290 h1        1 MOL      0.057442
    173 H82        11.7270    3.9000    0.6250 hc        1 MOL      0.010120
    174 H83        10.6150    3.7800    1.8910 hc        1 MOL      0.010120
    175 H84         9.5450    5.8380    1.2520 hc        1 MOL      0.067003
    176 H85        10.7190    6.2240    0.0170 hc        1 MOL      0.067003
    177 N15         7.9280    3.0990    1.5760 n         1 MOL     -0.207637
    178 C54         8.5840    2.4360    2.6950 c3        1 MOL     -0.199508
    179 H86         9.5840    2.1250    2.3970 h1        1 MOL      0.099467
    180 H87         8.6540    3.1250    3.5360 h1        1 MOL      0.099467
    181 H88         8.0050    1.5610    2.9900 h1        1 MOL      0.099467
    182 H89         6.9460    3.2960    1.6590 hn        1 MOL      0.278089
    183 Ca1        -5.5220    3.8110   -0.3360 Ca        1 MOL      1.630669
    184 O25        -3.6780    4.5230   -2.1700 oh        1 MOL     -0.771779
    185 H90        -3.0340    4.1710   -2.7800 ho        1 MOL      0.389615
    186 H91        -3.7090    5.4600   -2.3680 ho        1 MOL      0.389615
    187 O26        -6.5520    5.4790   -2.1120 oh        1 MOL     -0.771779
    188 H92        -7.3760    5.4800   -2.5940 ho        1 MOL      0.389615
    189 H93        -5.8840    5.6320   -2.7850 ho        1 MOL      0.389615
    190 O27        -3.2120    3.8600    0.9880 oh        1 MOL     -0.771779
    191 H94        -2.8970    4.2740    1.7880 ho        1 MOL      0.389615
    192 H95        -2.4470    3.4300    0.6150 ho        1 MOL      0.389615
    193 O28        -4.6670    6.2010    0.2650 oh        1 MOL     -0.771779
    194 H96        -5.3890    6.7850    0.0230 ho        1 MOL      0.389615
    195 H97        -3.8730    6.6990    0.0640 ho        1 MOL      0.389615
    196 O29        -4.0420    1.6500   -0.9350 oh        1 MOL     -0.771779
    197 H98        -4.3520    0.7990   -1.2440 ho        1 MOL      0.389615
    198 H99        -3.1060    1.6450   -1.1490 ho        1 MOL      0.389615
@<TRIPOS>BOND
     1    1    2 1   
     2    1    4 1   
     3    1    5 1   
     4    1    6 1   
     5    2    3 2   
     6    2    7 1   
     7    7    8 1   
     8    7   15 1   
     9    8    9 1   
    10    8   11 1   
    11    8   16 1   
    12    9   10 2   
    13    9   19 1   
    14   11   12 1   
    15   11   17 1   
    16   11   18 1   
    17   12   13 1   
    18   12   14 1   
    19   19   20 1   
    20   19   28 1   
    21   20   21 1   
    22   20   23 1   
    23   20   29 1   
    24   21   22 2   
    25   21   41 1   
    26   23   24 1   
    27   23   30 1   
    28   23   31 1   
    29   24   25 1   
    30   24   32 1   
    31   24   33 1   
    32   25   26 1   
    33   25   34 1   
    34   25   35 1   
    35   26   27 1   
    36   26   36 1   
    37   26   37 1   
    38   27   38 1   
    39   27   39 1   
    40   27   40 1   
    41   41   42 1   
    42   41   49 1   
    43   42   43 1   
    44   42   45 1   
    45   42   50 1   
    46   43   44 2   
    47   43   53 1   
    48   45   46 1   
    49   45   51 1   
    50   45   52 1   
    51   46   47 1   
    52   46   48 1   
    53   53   54 1   
    54   53   57 1   
    55   54   55 1   
    56   54   58 1   
    57   54   59 1   
    58   55   56 2   
    59   55   60 1   
    60   60   61 1   
    61   60   68 1   
    62   61   62 1   
    63   61   64 1   
    64   61   69 1   
    65   62   63 2   
    66   62   72 1   
    67   64   65 1   
    68   64   70 1   
    69   64   71 1   
    70   65   66 1   
    71   65   67 1   
    72   72   73 1   
    73   72   76 1   
    74   73   74 1   
    75   73   77 1   
    76   73   78 1   
    77   74   75 2   
    78   74   79 1   
    79   79   80 1   
    80   79   86 1   
    81   80   81 1   
    82   80   83 1   
    83   80   87 1   
    84   81   82 2   
    85   81   93 1   
    86   83   84 1   
    87   83   85 1   
    88   83   88 1   
    89   84   90 1   
    90   84   91 1   
    91   84   92 1   
    92   85   89 1   
    93   93   94 1   
    94   93  101 1   
    95   94   95 1   
    96   94   97 1   
    97   94  102 1   
    98   95   96 2   
    99   95  112 1   
   100   97   98 1   
   101   97   99 1   
   102   97  103 1   
   103   98  100 1   
   104   98  104 1   
   105   98  105 1   
   106   99  106 1   
   107   99  107 1   
   108   99  108 1   
   109  100  109 1   
   110  100  110 1   
   111  100  111 1   
   112  112  113 1   
   113  112  119 1   
   114  113  114 1   
   115  113  116 1   
   116  113  120 1   
   117  114  115 2   
   118  114  126 1   
   119  116  117 1   
   120  116  118 1   
   121  116  121 1   
   122  117  123 1   
   123  117  124 1   
   124  117  125 1   
   125  118  122 1   
   126  126  127 1   
   127  126  133 1   
   128  127  128 1   
   129  127  130 1   
   130  127  134 1   
   131  128  129 2   
   132  128  140 1   
   133  130  131 1   
   134  130  132 1   
   135  130  135 1   
   136  131  137 1   
   137  131  138 1   
   138  131  139 1   
   139  132  136 1   
   140  140  141 1   
   141  140  149 1   
   142  141  142 1   
   143  141  144 1   
   144  141  150 1   
   145  142  143 2   
   146  142  162 1   
   147  144  145 1   
   148  144  151 1   
   149  144  152 1   
   150  145  146 1   
   151  145  153 1   
   152  145  154 1   
   153  146  147 1   
   154  146  155 1   
   155  146  156 1   
   156  147  148 1   
   157  147  157 1   
   158  147  158 1   
   159  148  159 1   
   160  148  160 1   
   161  148  161 1   
   162  162  163 1   
   163  162  171 1   
   164  163  164 1   
   165  163  166 1   
   166  163  172 1   
   167  164  165 2   
   168  164  177 1   
   169  166  167 1   
   170  166  173 1   
   171  166  174 1   
   172  167  168 1   
   173  167  175 1   
   174  167  176 1   
   175  168  169 1   
   176  168  170 1   
   177  177  178 1   
   178  177  182 1   
   179  178  179 1   
   180  178  180 1   
   181  178  181 1   
   182  184  185 1   
   183  184  186 1   
   184  187  188 1   
   185  187  189 1   
   186  190  191 1   
   187  190  192 1   
   188  193  194 1   
   189  193  195 1   
   190  196  197 1   
   191  196  198 1   
@<TRIPOS>SUBSTRUCTURE
     1 MOL         1 TEMP              0 ****  ****    0 ROOT
