@<TRIPOS>MOLECULE
MOL
  192   187     1     0     0
SMALL
resp


@<TRIPOS>ATOM
      1 C1          5.5430   -6.0690   -2.8660 c3        1 MOL     -0.277383
      2 C2          5.1170   -4.7330   -2.1420 c         1 MOL      0.708218
      3 O1          4.7110   -4.8390   -0.9910 o         1 MOL     -0.587213
      4 H1          4.8650   -6.8710   -2.5740 hc        1 MOL      0.066203
      5 H2          5.4960   -5.9290   -3.9450 hc        1 MOL      0.066203
      6 H3          6.5610   -6.3300   -2.5770 hc        1 MOL      0.066203
      7 N1          5.1300   -3.5860   -2.7900 n         1 MOL     -0.523504
      8 C3          5.0190   -2.2140   -2.1650 c3        1 MOL      0.462546
      9 C4          3.5650   -1.7680   -1.6360 c         1 MOL     -0.062668
     10 O2          3.3060   -0.6240   -1.3200 o         1 MOL     -0.225999
     11 C5          5.5340   -1.2290   -3.1290 c3        1 MOL     -0.250034
     12 C6          7.0490   -1.3970   -3.5220 c         1 MOL      0.680654
     13 O3          7.2730   -2.2950   -4.3390 o         1 MOL     -0.692717
     14 O4          8.0220   -0.7470   -3.0330 o         1 MOL     -0.692717
     15 H4          5.2800   -3.6440   -3.7880 hn        1 MOL      0.257702
     16 H5          5.7010   -2.2360   -1.3190 h1        1 MOL      0.034616
     17 H6          5.4930   -0.2120   -2.7390 hc        1 MOL      0.003392
     18 H7          4.9400   -1.2750   -4.0430 hc        1 MOL      0.003392
     19 N2          2.6640   -2.7340   -1.6320 n         1 MOL     -0.170908
     20 C7          1.2270   -2.4370   -1.5140 c3        1 MOL      0.228836
     21 C8          0.4040   -3.1300   -0.4520 c         1 MOL      0.451533
     22 O5          0.6560   -4.3130   -0.1690 o         1 MOL     -0.531729
     23 C9          0.5790   -2.6010   -2.8650 c3        1 MOL     -0.325937
     24 C10         1.0740   -1.8760   -4.1010 c3        1 MOL      0.105327
     25 C11         0.2720   -2.0890   -5.4070 c3        1 MOL     -0.198566
     26 C12         0.6270   -1.1670   -6.5510 c3        1 MOL      0.159808
     27 N3         -0.4350   -1.1590   -7.6150 n4        1 MOL     -0.271148
     28 H8          2.9420   -3.6650   -1.8770 hn        1 MOL      0.181576
     29 H9          1.0710   -1.3820   -1.2570 h1        1 MOL      0.045435
     30 H10        -0.4960   -2.4370   -2.7660 hc        1 MOL      0.091997
     31 H11         0.6150   -3.6740   -3.0800 hc        1 MOL      0.091997
     32 H12         2.0990   -2.1680   -4.3210 hc        1 MOL      0.028514
     33 H13         1.0540   -0.8080   -3.9040 hc        1 MOL      0.028514
     34 H14        -0.7360   -1.7830   -5.1380 hc        1 MOL      0.072899
     35 H15         0.1990   -3.1190   -5.7340 hc        1 MOL      0.072899
     36 H16         1.5910   -1.3870   -7.0190 hx        1 MOL      0.048217
     37 H17         0.7290   -0.1250   -6.2640 hx        1 MOL      0.048217
     38 H18        -0.2900   -1.9840   -8.1920 hn        1 MOL      0.293234
     39 H19        -1.3590   -1.2480   -7.2180 hn        1 MOL      0.293234
     40 H20        -0.2740   -0.4300   -8.2950 hn        1 MOL      0.293234
     41 N4         -0.5860   -2.5340    0.1660 n         1 MOL     -0.292439
     42 C13        -1.1230   -1.1170    0.0870 c3        1 MOL     -0.050720
     43 C14        -1.6050   -0.6730   -1.2850 c         1 MOL      0.043408
     44 O6         -0.9700    0.1280   -1.9740 o         1 MOL     -0.332215
     45 C15        -0.2820   -0.1350    0.9220 c3        1 MOL      0.279109
     46 C16        -0.2920   -0.6530    2.3710 c         1 MOL      0.297446
     47 O7         -1.1840   -1.4400    2.7050 o         1 MOL     -0.642762
     48 O8          0.4260   -0.2290    3.2750 o         1 MOL     -0.642762
     49 H21        -0.9620   -3.0790    0.9210 hn        1 MOL      0.208904
     50 H22        -2.1250   -1.1730    0.5170 h1        1 MOL      0.023903
     51 H23        -0.7520    0.8410    0.8890 hc        1 MOL      0.073368
     52 H24         0.7400   -0.1510    0.5230 hc        1 MOL      0.073368
     53 N5         -2.7150   -1.1690   -1.8330 n         1 MOL     -0.143463
     54 C17        -3.5950   -2.1600   -1.3140 c3        1 MOL     -0.005982
     55 C18        -4.3320   -2.8570   -2.3680 c         1 MOL      0.565689
     56 O9         -3.9240   -2.7590   -3.5420 o         1 MOL     -0.576116
     57 H25        -2.9130   -0.7860   -2.7440 hn        1 MOL      0.260736
     58 H26        -4.3810   -1.5940   -0.8190 h1        1 MOL      0.068632
     59 H27        -3.0280   -2.8200   -0.6490 h1        1 MOL      0.068632
     60 N6         -5.4710   -3.5900   -2.0470 n         1 MOL     -0.440266
     61 C19        -5.9620   -3.8410   -0.7140 c3        1 MOL     -0.131712
     62 C20        -6.8000   -2.6830   -0.1860 c         1 MOL      0.485090
     63 O10        -7.4920   -1.9380   -0.8760 o         1 MOL     -0.461822
     64 C21        -6.8150   -5.1520   -0.7290 c3        1 MOL      0.049766
     65 C22        -7.9540   -5.2920   -1.6590 c         1 MOL      0.719285
     66 O11        -7.8020   -6.0610   -2.6360 o         1 MOL     -0.699573
     67 O12        -9.0450   -4.7420   -1.3390 o         1 MOL     -0.699573
     68 H28        -5.9490   -4.0540   -2.8050 hn        1 MOL      0.308977
     69 H29        -5.2590   -3.9560    0.1100 h1        1 MOL      0.019158
     70 H30        -7.1780   -5.3560    0.2650 hc        1 MOL     -0.029855
     71 H31        -6.2180   -6.0540   -0.9010 hc        1 MOL     -0.029855
     72 N7         -6.6550   -2.5620    1.0960 n         1 MOL     -0.241096
     73 C23        -7.3860   -1.5590    1.8840 c3        1 MOL     -0.418595
     74 C24        -6.8230   -0.1240    1.9540 c         1 MOL      0.574138
     75 O13        -7.5600    0.7790    2.3330 o         1 MOL     -0.556151
     76 H32        -6.0700   -3.1720    1.6550 hn        1 MOL      0.263363
     77 H33        -7.3410   -1.9030    2.9230 h1        1 MOL      0.181350
     78 H34        -8.4270   -1.5200    1.5570 h1        1 MOL      0.181350
     79 N8         -5.6030    0.1060    1.5670 n         1 MOL     -0.233751
     80 C25        -4.8620    1.4090    1.6390 c3        1 MOL     -0.019627
     81 C26        -4.6220    1.9410    0.2410 c         1 MOL      0.381931
     82 O14        -3.9090    1.3240   -0.5650 o         1 MOL     -0.415823
     83 C27        -3.5780    1.2720    2.5090 c3        1 MOL      0.317338
     84 C28        -3.9700    0.6980    3.9020 c3        1 MOL     -0.321949
     85 O15        -2.9030    2.5020    2.6220 oh        1 MOL     -0.601696
     86 H35        -5.0420   -0.7310    1.5470 hn        1 MOL      0.117310
     87 H36        -5.5280    2.1800    2.0400 h1        1 MOL      0.051250
     88 H37        -2.8990    0.6070    1.9720 h1        1 MOL      0.136223
     89 H38        -3.1100    2.9380    3.4490 ho        1 MOL      0.407381
     90 H39        -3.0970    0.7150    4.5490 hc        1 MOL      0.073493
     91 H40        -4.7680    1.3590    4.2290 hc        1 MOL      0.073493
     92 H41        -4.3490   -0.3220    3.8150 hc        1 MOL      0.073493
     93 N9         -5.0460    3.1990   -0.0580 n         1 MOL     -0.311503
     94 C29        -4.7580    3.9590   -1.2870 c3        1 MOL     -0.276835
     95 C30        -3.3510    4.4810   -1.2700 c         1 MOL      0.550320
     96 O16        -2.7350    4.5850   -2.3310 o         1 MOL     -0.527784
     97 C31        -5.6990    5.1590   -1.4070 c3        1 MOL     -0.010269
     98 C32        -7.1120    4.5710   -1.7050 c3        1 MOL      0.030219
     99 C33        -5.3970    6.1510   -2.5760 c3        1 MOL     -0.267462
    100 C34        -8.1960    5.5440   -1.4620 c3        1 MOL     -0.220412
    101 H42        -5.7430    3.5590    0.5780 hn        1 MOL      0.277362
    102 H43        -4.9200    3.3000   -2.1410 h1        1 MOL      0.165694
    103 H44        -5.7390    5.6400   -0.4330 hc        1 MOL      0.050908
    104 H45        -7.4450    3.7620   -1.0450 hc        1 MOL      0.057661
    105 H46        -7.2130    4.1990   -2.7270 hc        1 MOL      0.057661
    106 H47        -5.1000    5.6330   -3.4880 hc        1 MOL      0.091003
    107 H48        -6.2670    6.7740   -2.7680 hc        1 MOL      0.091003
    108 H49        -4.6080    6.8820   -2.3970 hc        1 MOL      0.091003
    109 H50        -8.1490    6.2130   -2.3230 hc        1 MOL      0.052153
    110 H51        -9.1660    5.0560   -1.4780 hc        1 MOL      0.052153
    111 H52        -8.1560    6.0760   -0.5190 hc        1 MOL      0.052153
    112 N10        -2.7900    4.7100   -0.0760 n         1 MOL     -0.252853
    113 C35        -1.3930    5.0590    0.2120 c3        1 MOL     -0.075816
    114 C36        -0.4290    3.8810    0.0630 c         1 MOL      0.421725
    115 O17        -0.0380    3.2710    1.0710 o         1 MOL     -0.534569
    116 C37        -1.2280    5.7560    1.5700 c3        1 MOL      0.433658
    117 C38        -2.1500    6.9890    1.5660 c3        1 MOL     -0.252539
    118 O18         0.0930    6.1790    1.7300 oh        1 MOL     -0.615798
    119 H53        -3.4380    4.6440    0.6910 hn        1 MOL      0.192636
    120 H54        -1.1950    5.7450   -0.6100 h1        1 MOL      0.045790
    121 H55        -1.5820    5.0910    2.3520 h1        1 MOL     -0.034600
    122 H56         0.6440    5.3920    1.7170 ho        1 MOL      0.401976
    123 H57        -2.0980    7.5500    0.6340 hc        1 MOL      0.060517
    124 H58        -3.1980    6.7590    1.7820 hc        1 MOL      0.060517
    125 H59        -1.7520    7.7050    2.2800 hc        1 MOL      0.060517
    126 N11         0.0380    3.6370   -1.1390 n         1 MOL     -0.238934
    127 C39         1.2360    2.6970   -1.2920 c3        1 MOL     -0.474385
    128 C40         2.5110    3.1750   -0.4880 c         1 MOL      0.732647
    129 O19         2.6440    4.3690   -0.2980 o         1 MOL     -0.550294
    130 C41         1.4390    2.4310   -2.8160 c3        1 MOL      0.528686
    131 C42         1.9630    3.5860   -3.6250 c3        1 MOL     -0.329150
    132 O20         0.2340    1.9390   -3.3960 oh        1 MOL     -0.597673
    133 H60        -0.3530    4.0100   -2.0010 hn        1 MOL      0.303967
    134 H61         0.9140    1.7510   -0.8520 h1        1 MOL      0.111012
    135 H62         2.1250    1.5800   -2.8970 h1        1 MOL     -0.052731
    136 H63         0.0410    1.0430   -3.1120 ho        1 MOL      0.296412
    137 H64         2.8430    4.0770   -3.1930 hc        1 MOL      0.083879
    138 H65         2.0930    3.3300   -4.6770 hc        1 MOL      0.083879
    139 H66         1.1490    4.2800   -3.4280 hc        1 MOL      0.083879
    140 N12         3.5150    2.3290   -0.2230 n         1 MOL     -0.416567
    141 C43         4.6590    2.5770    0.6310 c3        1 MOL      0.021511
    142 C44         4.7960    1.5350    1.7690 c         1 MOL      0.666569
    143 O21         5.0200    1.8880    2.9180 o         1 MOL     -0.640658
    144 C45         5.8850    2.7210   -0.3240 c3        1 MOL     -0.124366
    145 C46         7.0780    3.3840    0.4080 c3        1 MOL      0.000592
    146 C47         8.2730    3.5880   -0.5490 c3        1 MOL      0.196432
    147 C48         9.1780    4.6270    0.0340 c3        1 MOL      0.067606
    148 N13        10.2310    4.8490   -0.9950 n4        1 MOL     -0.382693
    149 H67         3.4460    1.4240   -0.6670 hn        1 MOL      0.126196
    150 H68         4.4100    3.5360    1.0900 h1        1 MOL      0.081546
    151 H69         5.6140    3.4490   -1.0890 hc        1 MOL      0.058952
    152 H70         6.2250    1.7850   -0.7690 hc        1 MOL      0.058952
    153 H71         7.4410    2.7620    1.2320 hc        1 MOL     -0.000457
    154 H72         6.7910    4.3860    0.7270 hc        1 MOL     -0.000457
    155 H73         7.8670    4.0310   -1.4580 hc        1 MOL     -0.023298
    156 H74         8.6800    2.6080   -0.7730 hc        1 MOL     -0.023298
    157 H75         9.5890    4.2350    0.9690 hx        1 MOL      0.063068
    158 H76         8.7130    5.5770    0.3020 hx        1 MOL      0.063068
    159 H77        11.0240    5.3240   -0.5710 hn        1 MOL      0.307435
    160 H78        10.6050    4.0290   -1.4560 hn        1 MOL      0.307435
    161 H79         9.8650    5.4010   -1.7470 hn        1 MOL      0.307435
    162 N14         4.5120    0.2870    1.4580 n         1 MOL     -0.387065
    163 C49         4.5350   -0.8380    2.3620 c3        1 MOL     -0.027607
    164 C50         5.9840   -1.4250    2.4840 c         1 MOL      0.177014
    165 O22         6.5240   -1.8750    1.4470 o         1 MOL     -0.443531
    166 C51         3.6140   -1.9030    1.8510 c3        1 MOL      0.298412
    167 C52         3.6560   -3.1580    2.6940 c3        1 MOL     -0.119406
    168 C53         3.2250   -2.7980    4.1200 c         1 MOL      0.571449
    169 O23         4.1170   -2.9570    4.9680 o         1 MOL     -0.722507
    170 O24         2.0210   -2.5770    4.4160 o         1 MOL     -0.722507
    171 H80         4.4800    0.0840    0.4700 hn        1 MOL      0.264318
    172 H81         4.2420   -0.4860    3.3480 h1        1 MOL      0.167992
    173 H82         3.9000   -2.2130    0.8500 hc        1 MOL     -0.132655
    174 H83         2.5900   -1.5400    1.7610 hc        1 MOL     -0.132655
    175 H84         4.6490   -3.6040    2.6580 hc        1 MOL      0.075495
    176 H85         2.9350   -3.9070    2.3620 hc        1 MOL      0.075495
    177 N15         6.5470   -1.5370    3.6970 n         1 MOL     -0.019149
    178 C54         7.8640   -2.1340    3.9880 c3        1 MOL     -0.167979
    179 H86         7.7320   -3.1700    4.2990 h1        1 MOL      0.079605
    180 H87         8.4850   -2.1000    3.0930 h1        1 MOL      0.079605
    181 H88         8.3480   -1.5740    4.7880 h1        1 MOL      0.079605
    182 H89         6.1350   -0.9870    4.4380 hn        1 MOL      0.204123
    183 Ca1        -0.4820   -2.2710    5.0200 Ca        1 MOL      1.746193
    184 O25        -2.8540   -3.3690    4.7880 oh        1 MOL     -0.887393
    185 H90        -2.9830   -4.2110    4.3560 ho        1 MOL      0.440282
    186 H91        -3.7340   -3.1030    5.0580 ho        1 MOL      0.440282
    187 O26        -2.1920   -1.0490    6.5390 oh        1 MOL     -0.887393
    188 H92        -1.9870   -1.0130    7.4750 ho        1 MOL      0.440282
    189 H93        -2.8420   -0.3620    6.4070 ho        1 MOL      0.440282
    190 O27         1.0040   -0.7530    6.6690 oh        1 MOL     -0.887393
    191 H94         1.9100   -1.0420    6.7830 ho        1 MOL      0.440282
    192 H95         0.9310    0.0340    7.1920 ho        1 MOL      0.440282
@<TRIPOS>BOND
     1    1    2 1   
     2    1    4 1   
     3    1    5 1   
     4    1    6 1   
     5    2    3 2   
     6    2    7 1   
     7    7    8 1   
     8    7   15 1   
     9    8    9 1   
    10    8   11 1   
    11    8   16 1   
    12    9   10 2   
    13    9   19 1   
    14   11   12 1   
    15   11   17 1   
    16   11   18 1   
    17   12   13 1   
    18   12   14 1   
    19   19   20 1   
    20   19   28 1   
    21   20   21 1   
    22   20   23 1   
    23   20   29 1   
    24   21   22 2   
    25   21   41 1   
    26   23   24 1   
    27   23   30 1   
    28   23   31 1   
    29   24   25 1   
    30   24   32 1   
    31   24   33 1   
    32   25   26 1   
    33   25   34 1   
    34   25   35 1   
    35   26   27 1   
    36   26   36 1   
    37   26   37 1   
    38   27   38 1   
    39   27   39 1   
    40   27   40 1   
    41   41   42 1   
    42   41   49 1   
    43   42   43 1   
    44   42   45 1   
    45   42   50 1   
    46   43   44 2   
    47   43   53 1   
    48   45   46 1   
    49   45   51 1   
    50   45   52 1   
    51   46   47 1   
    52   46   48 1   
    53   53   54 1   
    54   53   57 1   
    55   54   55 1   
    56   54   58 1   
    57   54   59 1   
    58   55   56 2   
    59   55   60 1   
    60   60   61 1   
    61   60   68 1   
    62   61   62 1   
    63   61   64 1   
    64   61   69 1   
    65   62   63 2   
    66   62   72 1   
    67   64   65 1   
    68   64   70 1   
    69   64   71 1   
    70   65   66 1   
    71   65   67 1   
    72   72   73 1   
    73   72   76 1   
    74   73   74 1   
    75   73   77 1   
    76   73   78 1   
    77   74   75 2   
    78   74   79 1   
    79   79   80 1   
    80   79   86 1   
    81   80   81 1   
    82   80   83 1   
    83   80   87 1   
    84   81   82 2   
    85   81   93 1   
    86   83   84 1   
    87   83   85 1   
    88   83   88 1   
    89   84   90 1   
    90   84   91 1   
    91   84   92 1   
    92   85   89 1   
    93   93   94 1   
    94   93  101 1   
    95   94   95 1   
    96   94   97 1   
    97   94  102 1   
    98   95   96 2   
    99   95  112 1   
   100   97   98 1   
   101   97   99 1   
   102   97  103 1   
   103   98  100 1   
   104   98  104 1   
   105   98  105 1   
   106   99  106 1   
   107   99  107 1   
   108   99  108 1   
   109  100  109 1   
   110  100  110 1   
   111  100  111 1   
   112  112  113 1   
   113  112  119 1   
   114  113  114 1   
   115  113  116 1   
   116  113  120 1   
   117  114  115 2   
   118  114  126 1   
   119  116  117 1   
   120  116  118 1   
   121  116  121 1   
   122  117  123 1   
   123  117  124 1   
   124  117  125 1   
   125  118  122 1   
   126  126  127 1   
   127  126  133 1   
   128  127  128 1   
   129  127  130 1   
   130  127  134 1   
   131  128  129 2   
   132  128  140 1   
   133  130  131 1   
   134  130  132 1   
   135  130  135 1   
   136  131  137 1   
   137  131  138 1   
   138  131  139 1   
   139  132  136 1   
   140  140  141 1   
   141  140  149 1   
   142  141  142 1   
   143  141  144 1   
   144  141  150 1   
   145  142  143 2   
   146  142  162 1   
   147  144  145 1   
   148  144  151 1   
   149  144  152 1   
   150  145  146 1   
   151  145  153 1   
   152  145  154 1   
   153  146  147 1   
   154  146  155 1   
   155  146  156 1   
   156  147  148 1   
   157  147  157 1   
   158  147  158 1   
   159  148  159 1   
   160  148  160 1   
   161  148  161 1   
   162  162  163 1   
   163  162  171 1   
   164  163  164 1   
   165  163  166 1   
   166  163  172 1   
   167  164  165 2   
   168  164  177 1   
   169  166  167 1   
   170  166  173 1   
   171  166  174 1   
   172  167  168 1   
   173  167  175 1   
   174  167  176 1   
   175  168  169 1   
   176  168  170 1   
   177  177  178 1   
   178  177  182 1   
   179  178  179 1   
   180  178  180 1   
   181  178  181 1   
   182  184  185 1   
   183  184  186 1   
   184  187  188 1   
   185  187  189 1   
   186  190  191 1   
   187  190  192 1   
@<TRIPOS>SUBSTRUCTURE
     1 MOL         1 TEMP              0 ****  ****    0 ROOT
