@<TRIPOS>MOLECULE
MOL
  184   179     1     0     0
SMALL
resp


@<TRIPOS>ATOM
      1 C1         -6.6460   -7.2330    2.2100 c3        1 MOL     -0.187768
      2 C2         -5.9490   -6.0320    1.6320 c         1 MOL      0.636696
      3 O1         -4.8140   -6.1420    1.1320 o         1 MOL     -0.585229
      4 H1         -6.4900   -8.0920    1.5580 hc        1 MOL      0.041038
      5 H2         -6.2400   -7.4480    3.1980 hc        1 MOL      0.041038
      6 H3         -7.7140   -7.0290    2.2920 hc        1 MOL      0.041038
      7 N1         -6.5900   -4.8940    1.4180 n         1 MOL     -0.557641
      8 C3         -8.0090   -4.5570    1.7220 c3        1 MOL      0.281985
      9 C4         -8.0850   -3.4710    2.7830 c         1 MOL      0.489233
     10 O2         -7.1960   -3.4530    3.6530 o         1 MOL     -0.511079
     11 C5         -8.7110   -4.1900    0.4480 c3        1 MOL     -0.291260
     12 C6         -8.2550   -2.9300   -0.2050 c         1 MOL      0.721240
     13 O3         -8.6540   -1.7860    0.1290 o         1 MOL     -0.691800
     14 O4         -7.5100   -3.0300   -1.1830 o         1 MOL     -0.691800
     15 H4         -5.9570   -4.2890    0.9080 hn        1 MOL      0.362392
     16 H5         -8.4610   -5.3990    2.2540 h1        1 MOL      0.044502
     17 H6         -9.7580   -4.0700    0.7450 hc        1 MOL      0.039767
     18 H7         -8.6150   -5.0530   -0.2140 hc        1 MOL      0.039767
     19 N2         -9.1290   -2.6750    2.8770 n         1 MOL     -0.621726
     20 C7         -9.3270   -1.5930    3.7760 c3        1 MOL      0.617732
     21 C8         -8.2510   -0.4490    3.7660 c         1 MOL      0.184953
     22 O5         -7.8210    0.0610    4.8070 o         1 MOL     -0.501527
     23 C9         -9.7610   -2.0630    5.1200 c3        1 MOL     -0.561476
     24 H8         -9.7300   -2.5400    2.0880 hn        1 MOL      0.273383
     25 H9        -10.1790   -1.0440    3.3920 h1        1 MOL     -0.069439
     26 H10        -8.8820   -2.3980    5.6710 hc        1 MOL      0.129607
     27 H11       -10.1720   -1.1740    5.6160 hc        1 MOL      0.129607
     28 H12       -10.4490   -2.8940    4.9840 hc        1 MOL      0.129607
     29 N3         -7.7780   -0.1500    2.5800 n         1 MOL      0.081125
     30 C10        -6.8980    1.0050    2.4170 c3        1 MOL     -0.066518
     31 C11        -7.4060    1.8250    1.1780 c         1 MOL      0.262455
     32 O6         -7.8740    1.2390    0.1900 o         1 MOL     -0.421873
     33 C12        -5.4620    0.5520    2.2290 c3        1 MOL     -0.284457
     34 C13        -5.1390   -0.5850    1.2150 c         1 MOL      0.657422
     35 O7         -4.1910   -1.3500    1.4970 o         1 MOL     -0.634100
     36 O8         -5.5690   -0.5900    0.0380 o         1 MOL     -0.634100
     37 H13        -8.2920   -0.4880    1.7820 hn        1 MOL      0.027918
     38 H14        -6.9240    1.6200    3.3200 h1        1 MOL      0.076590
     39 H15        -5.1390    0.2510    3.2210 hc        1 MOL      0.107465
     40 H16        -4.8140    1.3730    1.9210 hc        1 MOL      0.107465
     41 N4         -7.1040    3.1650    1.2150 n         1 MOL     -0.253912
     42 C14        -7.4130    3.9720    0.0380 c3        1 MOL     -0.260512
     43 C15        -6.2310    4.6680   -0.6880 c         1 MOL      0.572668
     44 O9         -6.4830    5.5440   -1.4840 o         1 MOL     -0.554759
     45 H17        -6.7090    3.6170    2.0320 hn        1 MOL      0.280182
     46 H18        -8.0350    4.8240    0.3280 h1        1 MOL      0.136647
     47 H19        -8.0240    3.4260   -0.6790 h1        1 MOL      0.136647
     48 N5         -4.9840    4.3380   -0.3550 n         1 MOL     -0.434193
     49 C16        -3.7870    4.6580   -1.0490 c3        1 MOL      0.408868
     50 C17        -3.0120    3.4140   -1.4320 c         1 MOL      0.356250
     51 O10        -3.0700    2.4290   -0.6880 o         1 MOL     -0.511497
     52 C18        -2.8990    5.6260   -0.2360 c3        1 MOL     -0.369132
     53 C19        -3.6870    6.9140    0.0290 c         1 MOL      0.672027
     54 N6         -4.0220    7.3400    1.2410 n         1 MOL     -0.776569
     55 O11        -3.9630    7.5440   -0.9410 o         1 MOL     -0.548141
     56 H20        -4.9090    3.6660    0.3890 hn        1 MOL      0.212531
     57 H21        -4.0780    5.1120   -1.9940 h1        1 MOL     -0.021509
     58 H22        -1.9690    5.8720   -0.7390 hc        1 MOL      0.114619
     59 H23        -2.6330    5.1710    0.7260 hc        1 MOL      0.114619
     60 H24        -3.7060    6.8390    2.0670 hn        1 MOL      0.357203
     61 H25        -4.3890    8.2770    1.2590 hn        1 MOL      0.357203
     62 N7         -2.1610    3.5060   -2.4190 n         1 MOL     -0.298406
     63 C20        -1.2830    2.3780   -2.7640 c3        1 MOL      0.014823
     64 C21         0.0730    2.6310   -3.4640 c         1 MOL      0.513306
     65 O12         0.3620    3.6840   -4.0210 o         1 MOL     -0.532419
     66 H26        -2.0840    4.3470   -2.9800 hn        1 MOL      0.227023
     67 H27        -1.8580    1.6680   -3.3820 h1        1 MOL      0.080417
     68 H28        -1.0930    1.8540   -1.8220 h1        1 MOL      0.080417
     69 N8          1.1170    1.7820   -3.2880 n         1 MOL     -0.386247
     70 C22         0.9660    0.4050   -2.8620 c3        1 MOL     -0.292446
     71 C23         2.2210   -0.1250   -2.1380 c         1 MOL      0.625338
     72 O13         3.3270    0.3370   -2.3740 o         1 MOL     -0.495770
     73 C24         0.5090   -0.6170   -3.9690 c3        1 MOL      0.511534
     74 C25        -0.9250   -0.5190   -4.3370 c3        1 MOL     -0.275847
     75 O14         1.2620   -0.4490   -5.1140 oh        1 MOL     -0.642539
     76 H29         1.9750    2.0090   -3.7670 hn        1 MOL      0.321117
     77 H30         0.1970    0.2530   -2.1120 h1        1 MOL      0.092037
     78 H31         0.7490   -1.6350   -3.6770 h1        1 MOL      0.002273
     79 H32         2.1140   -0.0530   -4.8850 ho        1 MOL      0.419549
     80 H33        -1.5260   -0.5540   -3.4310 hc        1 MOL      0.056899
     81 H34        -1.1570    0.3700   -4.9310 hc        1 MOL      0.056899
     82 H35        -1.1530   -1.3890   -4.9590 hc        1 MOL      0.056899
     83 N9          2.0320   -1.2080   -1.3880 n         1 MOL     -0.522597
     84 C26         3.0560   -2.0000   -0.6650 c3        1 MOL     -0.056012
     85 C27         3.0330   -3.4260   -1.1490 c         1 MOL      0.615156
     86 O15         2.1110   -4.1690   -0.7830 o         1 MOL     -0.585076
     87 C28         2.9490   -1.9040    0.8240 c3        1 MOL      0.200885
     88 C29         2.9410   -0.3960    1.1220 c3        1 MOL     -0.005045
     89 C30         4.1600   -2.5690    1.4950 c3        1 MOL     -0.335080
     90 C31         2.2720   -0.2070    2.5350 c3        1 MOL     -0.262134
     91 H36         1.0880   -1.4860   -1.1810 hn        1 MOL      0.286275
     92 H37         4.0080   -1.5650   -0.9560 h1        1 MOL      0.036339
     93 H38         2.1030   -2.4210    1.2740 hc        1 MOL      0.013047
     94 H39         2.3600    0.2450    0.4700 hc        1 MOL      0.066483
     95 H40         3.9610   -0.0440    0.9880 hc        1 MOL      0.066483
     96 H41         4.2100   -2.4260    2.5820 hc        1 MOL      0.081629
     97 H42         3.9980   -3.6440    1.4310 hc        1 MOL      0.081629
     98 H43         5.1370   -2.3950    1.0360 hc        1 MOL      0.081629
     99 H44         1.2000   -0.4320    2.4450 hc        1 MOL      0.055242
    100 H45         2.7550   -0.8680    3.2510 hc        1 MOL      0.055242
    101 H46         2.3840    0.8130    2.8810 hc        1 MOL      0.055242
    102 N10         3.9070   -3.8830   -2.0510 n         1 MOL     -0.654284
    103 C32         5.0060   -2.9390   -2.5580 c3        1 MOL      0.374949
    104 C33         6.3010   -2.7550   -1.6600 c         1 MOL      0.626673
    105 O16         6.5120   -3.5950   -0.7820 o         1 MOL     -0.623672
    106 C34         5.3360   -3.4130   -3.9930 c3        1 MOL     -0.424090
    107 C35         5.9390   -2.3200   -4.9040 c         1 MOL      0.715865
    108 O17         5.9520   -1.1500   -4.5040 o         1 MOL     -0.706934
    109 O18         6.3320   -2.6660   -6.0530 o         1 MOL     -0.706934
    110 H47         3.7470   -4.7960   -2.4680 hn        1 MOL      0.353324
    111 H48         4.6560   -1.9120   -2.6850 h1        1 MOL      0.026612
    112 H49         4.4470   -3.8530   -4.4510 hc        1 MOL      0.075787
    113 H50         6.0500   -4.2330   -3.9040 hc        1 MOL      0.075787
    114 N11         7.1120   -1.7090   -1.7690 n         1 MOL     -0.620150
    115 C36         8.1920   -1.2990   -0.8590 c3        1 MOL      0.255108
    116 C37         8.7260    0.0120   -1.3170 c         1 MOL      0.254367
    117 O19         9.0250    0.1960   -2.5490 o         1 MOL     -0.474036
    118 C38         9.2410   -2.3650   -0.8670 c3        1 MOL     -0.211029
    119 C39        10.3070   -2.1200    0.1760 ca        1 MOL      0.034871
    120 C40        11.6320   -1.6180   -0.1810 ca        1 MOL     -0.143014
    121 C41        10.1930   -2.5490    1.5100 ca        1 MOL     -0.143014
    122 C42        12.6670   -1.4540    0.7370 ca        1 MOL     -0.118526
    123 C43        11.2940   -2.4290    2.4460 ca        1 MOL     -0.118526
    124 C44        12.4690   -1.8300    2.0440 ca        1 MOL     -0.109062
    125 H51         6.9230   -1.1130   -2.5650 hn        1 MOL      0.355798
    126 H52         7.6930   -1.2960    0.1090 h1        1 MOL      0.050098
    127 H53         9.6420   -2.5120   -1.8720 hc        1 MOL      0.114584
    128 H54         8.7530   -3.3150   -0.6480 hc        1 MOL      0.114584
    129 H55        11.6930   -1.2270   -1.1860 ha        1 MOL      0.112926
    130 H56         9.2880   -3.0820    1.7790 ha        1 MOL      0.112926
    131 H57        13.6520   -1.1210    0.4180 ha        1 MOL      0.099696
    132 H58        11.2090   -2.8010    3.4580 ha        1 MOL      0.099696
    133 H59        13.2980   -1.7740    2.7320 ha        1 MOL      0.084453
    134 N12         8.9880    1.0380   -0.4380 n         1 MOL      0.036531
    135 C45         8.8600    0.9270    1.0590 c3        1 MOL      0.306082
    136 C46         7.4060    0.9390    1.5610 c         1 MOL      0.458933
    137 O20         6.4810    0.9210    0.7200 o         1 MOL     -0.509484
    138 C47         9.7680    2.0840    1.4710 c3        1 MOL     -0.294223
    139 C48         9.7360    3.1570    0.3490 c3        1 MOL      0.068520
    140 C49         9.3870    2.3380   -0.9060 c3        1 MOL     -0.142774
    141 H60         9.2430   -0.0010    1.4590 h1        1 MOL     -0.057060
    142 H61         9.3770    2.6180    2.3340 hc        1 MOL      0.054153
    143 H62        10.7650    1.6470    1.5280 hc        1 MOL      0.054153
    144 H63         8.9060    3.8320    0.5410 hc        1 MOL      0.025900
    145 H64        10.6540    3.7280    0.2510 hc        1 MOL      0.025900
    146 H65         8.5440    2.8350   -1.3690 h1        1 MOL      0.071596
    147 H66        10.2670    2.1840   -1.5320 h1        1 MOL      0.071596
    148 N13         7.1810    1.0760    2.9010 n         1 MOL     -0.477704
    149 C50         5.8560    1.1810    3.5890 c3        1 MOL      0.399862
    150 C51         5.9180    1.0750    5.0990 c         1 MOL      0.404177
    151 O21         5.2600    1.7930    5.8250 o         1 MOL     -0.514330
    152 C52         5.0170    2.3310    3.0670 c3        1 MOL     -0.082647
    153 C53         5.8070    3.6670    3.1340 c3        1 MOL     -0.293803
    154 C54         4.8480    4.7690    2.7600 c         1 MOL      0.778110
    155 O22         5.3660    5.6290    2.0600 o         1 MOL     -0.682300
    156 O23         3.6870    4.8440    3.1250 o         1 MOL     -0.682300
    157 H67         8.0020    1.3900    3.4080 hn        1 MOL      0.208655
    158 H68         5.2020    0.3720    3.2790 h1        1 MOL     -0.025153
    159 H69         4.1390    2.4150    3.7130 hc        1 MOL      0.051091
    160 H70         4.6540    2.1440    2.0570 hc        1 MOL      0.051091
    161 H71         6.6470    3.6330    2.4410 hc        1 MOL      0.057102
    162 H72         6.3030    3.8160    4.0880 hc        1 MOL      0.057102
    163 N14         6.7010    0.1210    5.6230 n         1 MOL     -0.435614
    164 C55         7.1620   -1.1750    5.0310 c3        1 MOL      0.035458
    165 H73         7.3170   -1.0500    3.9600 h1        1 MOL      0.030665
    166 H74         8.0980   -1.4780    5.5010 h1        1 MOL      0.030665
    167 H75         6.4050   -1.9420    5.2000 h1        1 MOL      0.030665
    168 H76         6.8170    0.2090    6.6200 hn        1 MOL      0.273258
    169 Ca1        -7.4890   -0.3770   -1.9070 Ca        1 MOL      1.711455
    170 O24        -6.9940   -0.4380   -4.4910 oh        1 MOL     -0.804454
    171 H77        -7.6320   -1.0850   -4.7770 ho        1 MOL      0.377644
    172 H78        -6.4390   -0.2920   -5.2580 ho        1 MOL      0.377644
    173 O25        -9.4510   -1.5930   -3.2130 oh        1 MOL     -0.804454
    174 H79        -9.4080   -1.8570   -4.1330 ho        1 MOL      0.377644
    175 H80       -10.3770   -1.3680   -3.0790 ho        1 MOL      0.377644
    176 O26        -6.6530    2.0460   -2.7170 oh        1 MOL     -0.804454
    177 H81        -5.8030    1.9570   -3.1540 ho        1 MOL      0.377644
    178 H82        -7.1320    2.6710   -3.2620 ho        1 MOL      0.377644
    179 O27        -9.6180    1.3790   -2.5430 oh        1 MOL     -0.804454
    180 H83        -9.8280    1.6060   -3.4480 ho        1 MOL      0.377644
    181 H84       -10.0630    2.0430   -2.0170 ho        1 MOL      0.377644
    182 O28        -5.0180   -1.7540   -2.8010 oh        1 MOL     -0.804454
    183 H85        -4.1760   -1.6580   -2.3460 ho        1 MOL      0.377644
    184 H86        -4.7840   -1.7250   -3.7370 ho        1 MOL      0.377644
@<TRIPOS>BOND
     1    1    2 1   
     2    1    4 1   
     3    1    5 1   
     4    1    6 1   
     5    2    3 2   
     6    2    7 1   
     7    7    8 1   
     8    7   15 1   
     9    8    9 1   
    10    8   11 1   
    11    8   16 1   
    12    9   10 2   
    13    9   19 1   
    14   11   12 1   
    15   11   17 1   
    16   11   18 1   
    17   12   13 1   
    18   12   14 1   
    19   19   20 1   
    20   19   24 1   
    21   20   21 1   
    22   20   23 1   
    23   20   25 1   
    24   21   22 2   
    25   21   29 1   
    26   23   26 1   
    27   23   27 1   
    28   23   28 1   
    29   29   30 1   
    30   29   37 1   
    31   30   31 1   
    32   30   33 1   
    33   30   38 1   
    34   31   32 2   
    35   31   41 1   
    36   33   34 1   
    37   33   39 1   
    38   33   40 1   
    39   34   35 1   
    40   34   36 1   
    41   41   42 1   
    42   41   45 1   
    43   42   43 1   
    44   42   46 1   
    45   42   47 1   
    46   43   44 2   
    47   43   48 1   
    48   48   49 1   
    49   48   56 1   
    50   49   50 1   
    51   49   52 1   
    52   49   57 1   
    53   50   51 2   
    54   50   62 1   
    55   52   53 1   
    56   52   58 1   
    57   52   59 1   
    58   53   54 1   
    59   53   55 2   
    60   54   60 1   
    61   54   61 1   
    62   62   63 1   
    63   62   66 1   
    64   63   64 1   
    65   63   67 1   
    66   63   68 1   
    67   64   65 2   
    68   64   69 1   
    69   69   70 1   
    70   69   76 1   
    71   70   71 1   
    72   70   73 1   
    73   70   77 1   
    74   71   72 2   
    75   71   83 1   
    76   73   74 1   
    77   73   75 1   
    78   73   78 1   
    79   74   80 1   
    80   74   81 1   
    81   74   82 1   
    82   75   79 1   
    83   83   84 1   
    84   83   91 1   
    85   84   85 1   
    86   84   87 1   
    87   84   92 1   
    88   85   86 2   
    89   85  102 1   
    90   87   88 1   
    91   87   89 1   
    92   87   93 1   
    93   88   90 1   
    94   88   94 1   
    95   88   95 1   
    96   89   96 1   
    97   89   97 1   
    98   89   98 1   
    99   90   99 1   
   100   90  100 1   
   101   90  101 1   
   102  102  103 1   
   103  102  110 1   
   104  103  104 1   
   105  103  106 1   
   106  103  111 1   
   107  104  105 2   
   108  104  114 1   
   109  106  107 1   
   110  106  112 1   
   111  106  113 1   
   112  107  108 1   
   113  107  109 1   
   114  114  115 1   
   115  114  125 1   
   116  115  116 1   
   117  115  118 1   
   118  115  126 1   
   119  116  117 2   
   120  116  134 1   
   121  118  119 1   
   122  118  127 1   
   123  118  128 1   
   124  119  120 ar  
   125  119  121 ar  
   126  120  122 ar  
   127  120  129 1   
   128  121  123 ar  
   129  121  130 1   
   130  122  124 ar  
   131  122  131 1   
   132  123  124 ar  
   133  123  132 1   
   134  124  133 1   
   135  134  135 1   
   136  134  140 1   
   137  135  136 1   
   138  135  138 1   
   139  135  141 1   
   140  136  137 2   
   141  136  148 1   
   142  138  139 1   
   143  138  142 1   
   144  138  143 1   
   145  139  140 1   
   146  139  144 1   
   147  139  145 1   
   148  140  146 1   
   149  140  147 1   
   150  148  149 1   
   151  148  157 1   
   152  149  150 1   
   153  149  152 1   
   154  149  158 1   
   155  150  151 2   
   156  150  163 1   
   157  152  153 1   
   158  152  159 1   
   159  152  160 1   
   160  153  154 1   
   161  153  161 1   
   162  153  162 1   
   163  154  155 1   
   164  154  156 1   
   165  163  164 1   
   166  163  168 1   
   167  164  165 1   
   168  164  166 1   
   169  164  167 1   
   170  170  171 1   
   171  170  172 1   
   172  173  174 1   
   173  173  175 1   
   174  176  177 1   
   175  176  178 1   
   176  179  180 1   
   177  179  181 1   
   178  182  183 1   
   179  182  184 1   
@<TRIPOS>SUBSTRUCTURE
     1 MOL         1 TEMP              0 ****  ****    0 ROOT
