@<TRIPOS>MOLECULE
MOL
  195   189     1     0     0
SMALL
resp


@<TRIPOS>ATOM
      1 C1         12.2090    4.9050   -3.6540 c3        1 MOL     -0.267905
      2 C2         12.3410    3.6200   -2.7690 c         1 MOL      0.576542
      3 O1         13.0850    2.6970   -2.9430 o         1 MOL     -0.560338
      4 H1         12.5560    4.6870   -4.6630 hc        1 MOL      0.078007
      5 H2         11.1640    5.2160   -3.6890 hc        1 MOL      0.078007
      6 H3         12.8130    5.7050   -3.2260 hc        1 MOL      0.078007
      7 N1         11.5230    3.4680   -1.7150 n         1 MOL     -0.239768
      8 C3         11.2440    2.3180   -0.9280 c3        1 MOL     -0.089779
      9 C4          9.7640    2.0100   -1.1100 c         1 MOL      0.746537
     10 O2          8.8860    2.8930   -1.0940 o         1 MOL     -0.777549
     11 C5         11.5750    2.5430    0.5380 c3        1 MOL     -0.121272
     12 C6         11.0850    3.8130    1.2210 c         1 MOL      0.633357
     13 O3         11.4500    3.9480    2.3660 o         1 MOL     -0.635329
     14 O4         10.3330    4.6070    0.5970 o         1 MOL     -0.635329
     15 H4         11.0030    4.2900   -1.4460 hn        1 MOL      0.108488
     16 H5         11.8410    1.5140   -1.3530 h1        1 MOL      0.067193
     17 H6         12.6650    2.6070    0.5410 hc        1 MOL      0.058125
     18 H7         11.3150    1.6170    1.0350 hc        1 MOL      0.058125
     19 N2          9.4220    0.7390   -1.2160 n         1 MOL     -0.531617
     20 C7          8.0450    0.1340   -1.3670 c3        1 MOL     -0.047123
     21 C8          7.1920    0.2230   -0.1430 c         1 MOL      0.663848
     22 O5          7.6750    0.0140    0.9420 o         1 MOL     -0.565536
     23 C9          8.0610   -1.2100   -2.0490 c3        1 MOL     -0.284809
     24 C10         8.8210   -2.4020   -1.3500 c3        1 MOL     -0.059803
     25 C11         8.8240   -3.8010   -2.1870 c3        1 MOL     -0.080669
     26 C12         7.5280   -4.4180   -2.5890 c3        1 MOL      0.102229
     27 N3          7.6810   -5.6220   -3.3900 n4        1 MOL     -0.311222
     28 H8         10.1660    0.0780   -1.3180 hn        1 MOL      0.315759
     29 H9          7.6200    0.8190   -2.0880 h1        1 MOL      0.130249
     30 H10         8.5520   -1.0400   -2.9990 hc        1 MOL      0.114547
     31 H11         7.0110   -1.4920   -2.1340 hc        1 MOL      0.114547
     32 H12         8.3220   -2.5880   -0.3970 hc        1 MOL      0.082584
     33 H13         9.8320   -2.0360   -1.2120 hc        1 MOL      0.082584
     34 H14         9.2850   -4.5380   -1.5270 hc        1 MOL      0.036366
     35 H15         9.4800   -3.7420   -3.0540 hc        1 MOL      0.036366
     36 H16         6.9380   -3.6420   -3.0700 hx        1 MOL      0.090931
     37 H17         6.9940   -4.7140   -1.6760 hx        1 MOL      0.090931
     38 H18         6.7790   -6.0710   -3.4440 hn        1 MOL      0.279665
     39 H19         8.0870   -5.4770   -4.2980 hn        1 MOL      0.279665
     40 H20         8.3380   -6.2400   -2.9360 hn        1 MOL      0.279665
     41 N4          5.9070    0.4760   -0.3270 n         1 MOL     -0.648659
     42 C13         4.8760    0.4020    0.7660 c3        1 MOL      0.284869
     43 C14         3.5270   -0.0740    0.1940 c         1 MOL      0.502552
     44 O6          3.3040    0.0840   -1.0310 o         1 MOL     -0.529731
     45 C15         4.7330    1.7930    1.3940 c3        1 MOL      0.117276
     46 C16         4.6530    2.9220    0.4650 c         1 MOL      0.497331
     47 O7          5.6380    3.7190    0.3100 o         1 MOL     -0.643340
     48 O8          3.5220    3.2730    0.0340 o         1 MOL     -0.643340
     49 H21         5.5600    0.4870   -1.2810 hn        1 MOL      0.297323
     50 H22         5.1820   -0.4270    1.3960 h1        1 MOL      0.052495
     51 H23         5.6580    1.8380    1.9670 hc        1 MOL     -0.058748
     52 H24         3.9460    1.8650    2.1290 hc        1 MOL     -0.058748
     53 N5          2.6490   -0.6590    0.9180 n         1 MOL     -0.499465
     54 C17         2.6000   -1.0650    2.2710 c3        1 MOL      0.013165
     55 C18         2.8560   -2.5280    2.5870 c         1 MOL      0.708754
     56 O9          3.3920   -3.0980    1.6520 o         1 MOL     -0.593098
     57 H25         1.9550   -1.1150    0.3370 hn        1 MOL      0.373978
     58 H26         1.6340   -0.7690    2.6860 h1        1 MOL      0.049976
     59 H27         3.3100   -0.5610    2.9280 h1        1 MOL      0.049976
     60 N6          2.4440   -3.0950    3.7500 n         1 MOL     -0.657021
     61 C19         2.6080   -4.4860    3.9410 c3        1 MOL      0.211353
     62 C20         1.5830   -5.2700    3.1720 c         1 MOL      0.417822
     63 O10         0.3600   -4.9320    3.2150 o         1 MOL     -0.522516
     64 C21         2.5410   -4.8220    5.3870 c3        1 MOL     -0.109208
     65 C22         2.9240   -6.2760    5.7950 c         1 MOL      0.631590
     66 O11         3.0630   -6.5530    7.0040 o         1 MOL     -0.650941
     67 O12         3.3590   -6.9930    4.9150 o         1 MOL     -0.650941
     68 H28         2.1460   -2.5240    4.5260 hn        1 MOL      0.347038
     69 H29         3.6020   -4.8150    3.6200 h1        1 MOL      0.015600
     70 H30         1.5550   -4.6350    5.8270 hc        1 MOL      0.016033
     71 H31         3.1080   -4.0790    5.9530 hc        1 MOL      0.016033
     72 N7          2.0150   -6.2410    2.3630 n         1 MOL     -0.281272
     73 C23         1.1770   -6.9710    1.3800 c3        1 MOL     -0.095996
     74 C24         0.7000   -6.2330    0.1030 c         1 MOL      0.499400
     75 O13         0.1450   -6.9040   -0.7410 o         1 MOL     -0.568258
     76 H32         2.9810   -6.5460    2.4720 hn        1 MOL      0.249769
     77 H33         0.2800   -7.3410    1.8730 h1        1 MOL      0.094367
     78 H34         1.7150   -7.8570    1.0450 h1        1 MOL      0.094367
     79 N8          0.9550   -4.9360   -0.0800 n         1 MOL     -0.153236
     80 C25         0.4980   -4.2050   -1.2900 c3        1 MOL      0.051018
     81 C26        -0.0800   -2.8480   -0.8300 c         1 MOL      0.384427
     82 O14         0.0940   -2.4650    0.3310 o         1 MOL     -0.429988
     83 C27         1.6820   -4.0660   -2.3620 c3        1 MOL      0.149271
     84 C28         2.9830   -3.4920   -1.7550 c3        1 MOL      0.047102
     85 O15         2.0450   -5.3050   -2.9580 oh        1 MOL     -0.569841
     86 H35         1.4660   -4.4640    0.6560 hn        1 MOL      0.101962
     87 H36        -0.2890   -4.7350   -1.8190 h1        1 MOL      0.067348
     88 H37         1.4300   -3.3000   -3.0930 h1        1 MOL      0.003846
     89 H38         1.2870   -5.4670   -3.5260 ho        1 MOL      0.371601
     90 H39         3.8160   -3.5200   -2.4560 hc        1 MOL     -0.021583
     91 H40         2.8180   -2.4390   -1.5360 hc        1 MOL     -0.021583
     92 H41         3.3180   -4.0640   -0.8850 hc        1 MOL     -0.021583
     93 N9         -0.7410   -2.1040   -1.7980 n         1 MOL     -0.388944
     94 C29        -1.1800   -0.7070   -1.7010 c3        1 MOL     -0.134840
     95 C30        -2.5480   -0.4550   -1.0740 c         1 MOL      0.595213
     96 O16        -2.6790    0.4470   -0.2700 o         1 MOL     -0.518656
     97 C31        -1.0300    0.1230   -2.9680 c3        1 MOL      0.056538
     98 C32         0.2770   -0.1330   -3.7250 c3        1 MOL      0.135488
     99 C33        -1.3970    1.6350   -2.9040 c3        1 MOL     -0.258466
    100 C34         0.4620    0.2730   -5.1490 c3        1 MOL     -0.397506
    101 H42        -1.0350   -2.5840   -2.6330 hn        1 MOL      0.245822
    102 H43        -0.4580   -0.2780   -0.9980 h1        1 MOL      0.114542
    103 H44        -1.7720   -0.2680   -3.6650 hc        1 MOL      0.014235
    104 H45         0.5630   -1.1890   -3.7390 hc        1 MOL      0.017117
    105 H46         1.1050    0.2260   -3.1210 hc        1 MOL      0.017117
    106 H47        -1.5580    2.0280   -3.9070 hc        1 MOL      0.086072
    107 H48        -2.3240    1.8100   -2.3520 hc        1 MOL      0.086072
    108 H49        -0.6200    2.2540   -2.4680 hc        1 MOL      0.086072
    109 H50        -0.2060   -0.3190   -5.7790 hc        1 MOL      0.090125
    110 H51         0.1920    1.3090   -5.3620 hc        1 MOL      0.090125
    111 H52         1.5420    0.1370   -5.2380 hc        1 MOL      0.090125
    112 N10        -3.4350   -1.4290   -1.2200 n         1 MOL     -0.444848
    113 C35        -4.6970   -1.6440   -0.5450 c3        1 MOL     -0.140370
    114 C36        -5.7930   -2.1930   -1.4900 c         1 MOL      0.621837
    115 O17        -5.6060   -3.1400   -2.2180 o         1 MOL     -0.534010
    116 C37        -4.4300   -2.5870    0.6980 c3        1 MOL      0.407988
    117 C38        -3.3280   -2.1430    1.6240 c3        1 MOL     -0.352200
    118 O18        -5.6930   -2.6580    1.3910 oh        1 MOL     -0.657006
    119 H53        -3.1280   -2.1030   -1.9070 hn        1 MOL      0.261495
    120 H54        -5.1020   -0.7410   -0.0970 h1        1 MOL      0.134584
    121 H55        -4.1540   -3.6010    0.4350 h1        1 MOL     -0.008865
    122 H56        -5.6100   -3.3430    2.0680 ho        1 MOL      0.401666
    123 H57        -2.3420   -2.1310    1.1890 hc        1 MOL      0.109191
    124 H58        -3.5090   -1.1320    2.0040 hc        1 MOL      0.109191
    125 H59        -3.3220   -2.8460    2.4570 hc        1 MOL      0.109191
    126 N11        -7.0270   -1.6670   -1.3080 n         1 MOL     -0.482037
    127 C39        -8.1710   -1.9720   -2.1860 c3        1 MOL     -0.100561
    128 C40        -9.3040   -0.9330   -2.1480 c         1 MOL      0.669711
    129 O19        -9.8720   -0.5930   -3.1690 o         1 MOL     -0.564816
    130 C41        -8.7260   -3.3480   -1.8340 c3        1 MOL      0.314853
    131 C42        -9.9690   -3.8790   -2.6460 c3        1 MOL     -0.425375
    132 O20        -9.1300   -3.1700   -0.4840 oh        1 MOL     -0.594912
    133 H60        -7.2220   -1.0230   -0.5630 hn        1 MOL      0.280612
    134 H61        -7.7880   -1.9460   -3.2050 h1        1 MOL      0.105723
    135 H62        -7.9010   -4.0570   -1.9320 h1        1 MOL      0.053741
    136 H63        -8.5470   -3.7650   -0.0070 ho        1 MOL      0.385302
    137 H64       -10.2740   -4.8800   -2.3200 hc        1 MOL      0.117983
    138 H65       -10.8100   -3.2510   -2.3560 hc        1 MOL      0.117983
    139 H66        -9.7960   -3.7700   -3.7140 hc        1 MOL      0.117983
    140 N12        -9.6510   -0.4250   -0.9670 n         1 MOL     -0.584330
    141 C43       -10.6360    0.6510   -0.8650 c3        1 MOL      0.001632
    142 C44       -10.3830    1.5970    0.2780 c         1 MOL      0.659576
    143 O21       -10.1720    1.1630    1.3920 o         1 MOL     -0.523475
    144 C45       -12.0110   -0.0020   -0.7220 c3        1 MOL     -0.065529
    145 C46       -13.2250    0.8670   -0.9730 c3        1 MOL     -0.001521
    146 C47       -14.4290    0.1180   -0.4890 c3        1 MOL     -0.068957
    147 C48       -15.5580    0.9470   -1.0210 c3        1 MOL      0.236197
    148 N13       -16.8900    0.4280   -0.7990 n4        1 MOL     -0.368562
    149 H67        -9.3410   -0.9310   -0.1560 hn        1 MOL      0.340842
    150 H68       -10.6380    1.2190   -1.7900 h1        1 MOL      0.086716
    151 H69       -11.9820   -0.2710    0.3320 hc        1 MOL      0.058411
    152 H70       -12.0490   -0.8710   -1.3820 hc        1 MOL      0.058411
    153 H71       -13.4580    1.0860   -2.0090 hc        1 MOL      0.021121
    154 H72       -13.0040    1.7450   -0.3580 hc        1 MOL      0.021121
    155 H73       -14.5250    0.0780    0.5920 hc        1 MOL      0.031917
    156 H74       -14.5500   -0.8900   -0.8930 hc        1 MOL      0.031917
    157 H75       -15.4880    1.1140   -2.0950 hx        1 MOL      0.021328
    158 H76       -15.4660    1.9900   -0.6970 hx        1 MOL      0.021328
    159 H77       -16.9980    0.2690    0.1930 hn        1 MOL      0.277146
    160 H78       -17.5620    1.0780   -1.1800 hn        1 MOL      0.277146
    161 H79       -16.9970   -0.4410   -1.2920 hn        1 MOL      0.277146
    162 N14       -10.4340    2.9120    0.0970 n         1 MOL     -0.596594
    163 C49       -10.3460    3.8350    1.2310 c3        1 MOL      0.244424
    164 C50        -8.8420    4.0620    1.6630 c         1 MOL      0.346781
    165 O22        -8.5920    4.0350    2.8880 o         1 MOL     -0.506307
    166 C51       -11.1640    5.1570    1.0380 c3        1 MOL     -0.012698
    167 C52       -11.0500    6.1940    2.1530 c3        1 MOL     -0.270403
    168 C53       -12.1130    7.3070    2.0940 c         1 MOL      0.695369
    169 O23       -11.8660    8.4860    1.7200 o         1 MOL     -0.655426
    170 O24       -13.2190    6.9550    2.6560 o         1 MOL     -0.655426
    171 H80       -10.7540    3.2140   -0.8200 hn        1 MOL      0.262825
    172 H81       -10.8900    3.2800    1.9990 h1        1 MOL      0.062515
    173 H82       -12.1890    4.9750    0.7210 hc        1 MOL      0.009019
    174 H83       -10.7570    5.6570    0.1590 hc        1 MOL      0.009019
    175 H84       -10.0570    6.6150    1.9600 hc        1 MOL      0.083624
    176 H85       -11.0140    5.7290    3.1420 hc        1 MOL      0.083624
    177 N15        -7.8260    4.2110    0.7850 n         1 MOL     -0.309911
    178 C54        -7.9120    4.8100   -0.5180 c3        1 MOL     -0.094034
    179 H86        -7.2310    4.2990   -1.1980 h1        1 MOL      0.063810
    180 H87        -8.9320    4.7220   -0.8920 h1        1 MOL      0.063810
    181 H88        -7.6380    5.8630   -0.4530 h1        1 MOL      0.063810
    182 H89        -6.8820    4.0060    1.0810 hn        1 MOL      0.296505
    183 Ca1         7.9000    4.8800    0.2880 Ca        1 MOL      1.773494
    184 O25         6.2730    7.0010    0.3980 oh        1 MOL     -0.892162
    185 H90         5.4590    6.9320   -0.0890 ho        1 MOL      0.437266
    186 H91         6.2800    7.9150    0.7140 ho        1 MOL      0.437266
    187 O26         9.0820    7.1970    1.5820 oh        1 MOL     -0.892162
    188 H92         9.7190    6.9020    2.2230 ho        1 MOL      0.437266
    189 H93         8.4910    7.7730    2.0660 ho        1 MOL      0.437266
    190 O27         7.4990    5.2340    3.0190 oh        1 MOL     -0.892162
    191 H94         7.5420    4.6240    3.7590 ho        1 MOL      0.437266
    192 H95         7.0520    6.0100    3.3650 ho        1 MOL      0.437266
    193 O28         8.3480    2.6160    2.0400 oh        1 MOL     -0.892162
    194 H96         8.1100    2.5220    2.9660 ho        1 MOL      0.437266
    195 H97         8.3540    1.7190    1.7130 ho        1 MOL      0.437266
@<TRIPOS>BOND
     1    1    2 1   
     2    1    4 1   
     3    1    5 1   
     4    1    6 1   
     5    2    3 2   
     6    2    7 1   
     7    7    8 1   
     8    7   15 1   
     9    8    9 1   
    10    8   11 1   
    11    8   16 1   
    12    9   10 2   
    13    9   19 1   
    14   11   12 1   
    15   11   17 1   
    16   11   18 1   
    17   12   13 1   
    18   12   14 1   
    19   19   20 1   
    20   19   28 1   
    21   20   21 1   
    22   20   23 1   
    23   20   29 1   
    24   21   22 2   
    25   21   41 1   
    26   23   24 1   
    27   23   30 1   
    28   23   31 1   
    29   24   25 1   
    30   24   32 1   
    31   24   33 1   
    32   25   26 1   
    33   25   34 1   
    34   25   35 1   
    35   26   27 1   
    36   26   36 1   
    37   26   37 1   
    38   27   38 1   
    39   27   39 1   
    40   27   40 1   
    41   41   42 1   
    42   41   49 1   
    43   42   43 1   
    44   42   45 1   
    45   42   50 1   
    46   43   44 2   
    47   43   53 1   
    48   45   46 1   
    49   45   51 1   
    50   45   52 1   
    51   46   47 1   
    52   46   48 1   
    53   53   54 1   
    54   53   57 1   
    55   54   55 1   
    56   54   58 1   
    57   54   59 1   
    58   55   56 2   
    59   55   60 1   
    60   60   61 1   
    61   60   68 1   
    62   61   62 1   
    63   61   64 1   
    64   61   69 1   
    65   62   63 2   
    66   62   72 1   
    67   64   65 1   
    68   64   70 1   
    69   64   71 1   
    70   65   66 1   
    71   65   67 1   
    72   72   73 1   
    73   72   76 1   
    74   73   74 1   
    75   73   77 1   
    76   73   78 1   
    77   74   75 2   
    78   74   79 1   
    79   79   80 1   
    80   79   86 1   
    81   80   81 1   
    82   80   83 1   
    83   80   87 1   
    84   81   82 2   
    85   81   93 1   
    86   83   84 1   
    87   83   85 1   
    88   83   88 1   
    89   84   90 1   
    90   84   91 1   
    91   84   92 1   
    92   85   89 1   
    93   93   94 1   
    94   93  101 1   
    95   94   95 1   
    96   94   97 1   
    97   94  102 1   
    98   95   96 2   
    99   95  112 1   
   100   97   98 1   
   101   97   99 1   
   102   97  103 1   
   103   98  100 1   
   104   98  104 1   
   105   98  105 1   
   106   99  106 1   
   107   99  107 1   
   108   99  108 1   
   109  100  109 1   
   110  100  110 1   
   111  100  111 1   
   112  112  113 1   
   113  112  119 1   
   114  113  114 1   
   115  113  116 1   
   116  113  120 1   
   117  114  115 2   
   118  114  126 1   
   119  116  117 1   
   120  116  118 1   
   121  116  121 1   
   122  117  123 1   
   123  117  124 1   
   124  117  125 1   
   125  118  122 1   
   126  126  127 1   
   127  126  133 1   
   128  127  128 1   
   129  127  130 1   
   130  127  134 1   
   131  128  129 2   
   132  128  140 1   
   133  130  131 1   
   134  130  132 1   
   135  130  135 1   
   136  131  137 1   
   137  131  138 1   
   138  131  139 1   
   139  132  136 1   
   140  140  141 1   
   141  140  149 1   
   142  141  142 1   
   143  141  144 1   
   144  141  150 1   
   145  142  143 2   
   146  142  162 1   
   147  144  145 1   
   148  144  151 1   
   149  144  152 1   
   150  145  146 1   
   151  145  153 1   
   152  145  154 1   
   153  146  147 1   
   154  146  155 1   
   155  146  156 1   
   156  147  148 1   
   157  147  157 1   
   158  147  158 1   
   159  148  159 1   
   160  148  160 1   
   161  148  161 1   
   162  162  163 1   
   163  162  171 1   
   164  163  164 1   
   165  163  166 1   
   166  163  172 1   
   167  164  165 2   
   168  164  177 1   
   169  166  167 1   
   170  166  173 1   
   171  166  174 1   
   172  167  168 1   
   173  167  175 1   
   174  167  176 1   
   175  168  169 1   
   176  168  170 1   
   177  177  178 1   
   178  177  182 1   
   179  178  179 1   
   180  178  180 1   
   181  178  181 1   
   182  184  185 1   
   183  184  186 1   
   184  187  188 1   
   185  187  189 1   
   186  190  191 1   
   187  190  192 1   
   188  193  194 1   
   189  193  195 1   
@<TRIPOS>SUBSTRUCTURE
     1 MOL         1 TEMP              0 ****  ****    0 ROOT
