@<TRIPOS>MOLECULE
MOL
  189   185     1     0     0
SMALL
resp


@<TRIPOS>ATOM
      1 C1         11.9890    5.5840   -2.2950 c3        1 MOL     -0.448598
      2 C2         11.7530    4.6400   -1.0870 c         1 MOL      0.628514
      3 O1         12.7010    4.2630   -0.3950 o         1 MOL     -0.558032
      4 H1         12.2240    6.5840   -1.9330 hc        1 MOL      0.126924
      5 H2         12.8200    5.2090   -2.8920 hc        1 MOL      0.126924
      6 H3         11.0890    5.6230   -2.9080 hc        1 MOL      0.126924
      7 N1         10.5300    4.3840   -0.6460 n         1 MOL     -0.311040
      8 C3         10.1580    3.6980    0.5540 c3        1 MOL     -0.359800
      9 C4          8.9190    2.7820    0.3510 c         1 MOL      0.688868
     10 O2          7.9590    3.2090   -0.2980 o         1 MOL     -0.588137
     11 C5          9.9110    4.6440    1.6730 c3        1 MOL      0.364023
     12 C6          8.8530    5.7450    1.3950 c         1 MOL      0.609081
     13 O3          8.6800    6.5560    2.3340 o         1 MOL     -0.714394
     14 O4          8.1710    5.8710    0.3590 o         1 MOL     -0.714394
     15 H4          9.6990    4.6830   -1.1510 hn        1 MOL      0.136364
     16 H5         10.9110    3.0270    0.9710 h1        1 MOL      0.087353
     17 H6         10.8730    5.0760    1.9720 hc        1 MOL     -0.027459
     18 H7          9.6530    4.0130    2.5180 hc        1 MOL     -0.027459
     19 N2          9.0100    1.5070    0.7880 n         1 MOL     -0.370132
     20 C7          8.3400    0.3550    0.3850 c3        1 MOL     -0.157425
     21 C8          7.0370    0.3230    1.2630 c         1 MOL      0.628077
     22 O5          7.0400   -0.1580    2.4000 o         1 MOL     -0.541633
     23 C9          9.2780   -0.8820    0.4920 c3        1 MOL     -0.025253
     24 C10         8.6140   -2.0900   -0.2030 c3        1 MOL     -0.106990
     25 C11         9.5150   -3.3160   -0.0230 c3        1 MOL      0.040301
     26 C12         8.7470   -4.6420   -0.3220 c3        1 MOL      0.023182
     27 N3          9.6350   -5.7200   -0.6660 n4        1 MOL     -0.304010
     28 H8          9.8040    1.3270    1.3760 hn        1 MOL      0.282376
     29 H9          8.0930    0.5300   -0.6570 h1        1 MOL      0.104163
     30 H10         9.5530   -1.2420    1.4810 hc        1 MOL      0.055893
     31 H11        10.2540   -0.5990    0.0840 hc        1 MOL      0.055893
     32 H12         8.4040   -1.8260   -1.2350 hc        1 MOL      0.052162
     33 H13         7.6180   -2.2520    0.2170 hc        1 MOL      0.052162
     34 H14         9.8980   -3.3560    0.9970 hc        1 MOL      0.019921
     35 H15        10.3680   -3.2380   -0.6840 hc        1 MOL      0.019921
     36 H16         8.0730   -4.4030   -1.1360 hx        1 MOL      0.096468
     37 H17         8.0760   -4.8260    0.5180 hx        1 MOL      0.096468
     38 H18        10.3640   -5.5320   -1.3400 hn        1 MOL      0.286056
     39 H19        10.0580   -6.0960    0.1750 hn        1 MOL      0.286056
     40 H20         9.1360   -6.5370   -0.9940 hn        1 MOL      0.286056
     41 N4          5.8100    0.5920    0.7000 n         1 MOL     -0.515814
     42 C13         4.5380    0.4680    1.5100 c3        1 MOL      0.223239
     43 C14         3.2220    0.3590    0.6020 c         1 MOL      0.314288
     44 O6          3.2540    0.6710   -0.6420 o         1 MOL     -0.460769
     45 C15         4.4490    1.6930    2.4230 c3        1 MOL     -0.115128
     46 C16         4.8440    3.0310    1.6940 c         1 MOL      0.970571
     47 O7          4.0180    3.6750    1.0490 o         1 MOL     -0.852297
     48 O8          5.9840    3.5490    1.8370 o         1 MOL     -0.852297
     49 H21         5.6100    0.9750   -0.2190 hn        1 MOL      0.200602
     50 H22         4.7010   -0.4470    2.0750 h1        1 MOL      0.083819
     51 H23         5.1410    1.4720    3.2380 hc        1 MOL      0.027030
     52 H24         3.4500    1.7550    2.8670 hc        1 MOL      0.027030
     53 N5          2.0400    0.0010    1.0770 n         1 MOL     -0.388762
     54 C17         1.8120   -0.7140    2.3480 c3        1 MOL      0.039990
     55 C18         2.2890   -2.2460    2.3000 c         1 MOL      0.378095
     56 O9          3.1090   -2.5800    1.3890 o         1 MOL     -0.518184
     57 H25         1.2670    0.0580    0.4390 hn        1 MOL      0.323931
     58 H26         0.8290   -0.6150    2.8050 h1        1 MOL      0.066851
     59 H27         2.4120   -0.2180    3.1080 h1        1 MOL      0.066851
     60 N6          1.7750   -3.1250    3.2110 n         1 MOL     -0.331460
     61 C19         2.2380   -4.5270    3.3270 c3        1 MOL      0.144944
     62 C20         1.5940   -5.4280    2.2280 c         1 MOL      0.411615
     63 O10         2.3510   -6.1570    1.6060 o         1 MOL     -0.556739
     64 C21         1.9780   -5.0990    4.7270 c3        1 MOL     -0.274492
     65 C22         0.5790   -4.7830    5.3400 c         1 MOL      0.638197
     66 O11        -0.2460   -3.9550    4.8850 o         1 MOL     -0.633864
     67 O12         0.1220   -5.6220    6.0920 o         1 MOL     -0.633864
     68 H28         1.0480   -2.7380    3.7930 hn        1 MOL      0.170217
     69 H29         3.3080   -4.6060    3.1500 h1        1 MOL      0.049278
     70 H30         2.7400   -4.6680    5.3780 hc        1 MOL      0.079018
     71 H31         2.1650   -6.1700    4.8070 hc        1 MOL      0.079018
     72 N7          0.2710   -5.3580    2.0450 n         1 MOL     -0.088595
     73 C23        -0.4110   -6.2420    1.0810 c3        1 MOL     -0.193446
     74 C24        -0.0080   -5.9430   -0.4120 c         1 MOL      0.465600
     75 O13        -0.5790   -6.5500   -1.2980 o         1 MOL     -0.586213
     76 H32        -0.2630   -4.7190    2.6270 hn        1 MOL      0.170253
     77 H33        -1.4920   -6.1280    1.1930 h1        1 MOL      0.110865
     78 H34        -0.1300   -7.2650    1.3380 h1        1 MOL      0.110865
     79 N8          0.6860   -4.9040   -0.7120 n         1 MOL      0.000587
     80 C25         0.8940   -4.3120   -2.0530 c3        1 MOL      0.021592
     81 C26         0.7540   -2.7990   -1.9770 c         1 MOL      0.192207
     82 O14         1.1170   -2.2340   -0.9390 o         1 MOL     -0.387224
     83 C27         2.2560   -4.6250   -2.7380 c3        1 MOL      0.432496
     84 C28         2.7830   -5.9710   -2.3050 c3        1 MOL     -0.397133
     85 O15         1.9690   -4.8150   -4.0980 oh        1 MOL     -0.690505
     86 H35         1.0440   -4.3330    0.0290 hn        1 MOL      0.075164
     87 H36         0.0770   -4.6610   -2.6800 h1        1 MOL      0.026598
     88 H37         2.9080   -3.7900   -2.4640 h1        1 MOL      0.034519
     89 H38         1.5720   -5.6660   -4.2650 ho        1 MOL      0.415124
     90 H39         2.8690   -5.9670   -1.2170 hc        1 MOL      0.086213
     91 H40         2.1750   -6.8140   -2.6560 hc        1 MOL      0.086213
     92 H41         3.7900   -5.9610   -2.7170 hc        1 MOL      0.086213
     93 N9          0.2570   -2.1040   -2.9770 n         1 MOL     -0.039122
     94 C29         0.0710   -0.6140   -2.9670 c3        1 MOL     -0.134622
     95 C30        -1.1570   -0.2460   -2.1200 c         1 MOL      0.624920
     96 O16        -1.2700    0.8490   -1.5630 o         1 MOL     -0.538968
     97 C31        -0.1380   -0.0870   -4.3880 c3        1 MOL      0.084830
     98 C32         0.9640   -0.6110   -5.2930 c3        1 MOL      0.093041
     99 C33        -0.0820    1.4600   -4.5420 c3        1 MOL     -0.360510
    100 C34         2.4640   -0.4200   -4.8710 c3        1 MOL     -0.348814
    101 H42        -0.0100   -2.6430   -3.7920 hn        1 MOL      0.174949
    102 H43         0.9230   -0.0790   -2.5470 h1        1 MOL      0.074720
    103 H44        -1.0990   -0.4790   -4.7130 hc        1 MOL      0.005378
    104 H45         0.8640   -0.2600   -6.3270 hc        1 MOL     -0.009427
    105 H46         0.8610   -1.6670   -5.5490 hc        1 MOL     -0.009427
    106 H47        -0.1640    1.7250   -5.5990 hc        1 MOL      0.109742
    107 H48        -0.9670    1.9360   -4.1200 hc        1 MOL      0.109742
    108 H49         0.8320    1.8910   -4.1380 hc        1 MOL      0.109742
    109 H50         2.6590    0.6090   -4.5810 hc        1 MOL      0.090793
    110 H51         2.7640   -1.1530   -4.1120 hc        1 MOL      0.090793
    111 H52         2.9940   -0.8500   -5.7180 hc        1 MOL      0.090793
    112 N10        -2.0040   -1.2350   -2.0800 n         1 MOL     -0.456898
    113 C35        -3.1450   -1.2550   -1.1300 c3        1 MOL     -0.012545
    114 C36        -4.3350   -1.9640   -1.7780 c         1 MOL      0.548229
    115 O17        -4.1930   -2.9700   -2.5130 o         1 MOL     -0.524552
    116 C37        -2.7860   -1.9040    0.2150 c3        1 MOL      0.332346
    117 C38        -2.0420   -3.2740    0.2020 c3        1 MOL     -0.455782
    118 O18        -1.9280   -1.0550    0.9780 oh        1 MOL     -0.611432
    119 H53        -1.8400   -2.1310   -2.5170 hn        1 MOL      0.234297
    120 H54        -3.4270   -0.2090   -1.0380 h1        1 MOL      0.108120
    121 H55        -3.6390   -1.8960    0.8870 h1        1 MOL      0.015539
    122 H56        -1.7140   -1.5360    1.7800 ho        1 MOL      0.393067
    123 H57        -2.5500   -3.9220   -0.5090 hc        1 MOL      0.119245
    124 H58        -0.9810   -3.0560    0.0990 hc        1 MOL      0.119245
    125 H59        -2.2170   -3.8560    1.1110 hc        1 MOL      0.119245
    126 N11        -5.5710   -1.5280   -1.4340 n         1 MOL     -0.435380
    127 C39        -6.8580   -2.0910   -1.8500 c3        1 MOL     -0.112367
    128 C40        -8.0240   -1.1290   -1.8720 c         1 MOL      0.637334
    129 O19        -8.8140   -1.1410   -2.7870 o         1 MOL     -0.531816
    130 C41        -7.1620   -3.3480   -1.0380 c3        1 MOL      0.297819
    131 C42        -8.5050   -3.9560   -1.3560 c3        1 MOL     -0.409642
    132 O20        -7.2400   -2.9510    0.2510 oh        1 MOL     -0.637733
    133 H60        -5.5960   -0.6730   -0.8850 hn        1 MOL      0.247784
    134 H61        -6.6790   -2.4160   -2.8710 h1        1 MOL      0.128417
    135 H62        -6.3880   -4.1090   -1.1530 h1        1 MOL      0.064801
    136 H63        -7.5660   -3.7250    0.7220 ho        1 MOL      0.417740
    137 H64        -8.4260   -4.4920   -2.3070 hc        1 MOL      0.103909
    138 H65        -8.7550   -4.5780   -0.4930 hc        1 MOL      0.103909
    139 H66        -9.2730   -3.1860   -1.4030 hc        1 MOL      0.103909
    140 N12        -8.0730   -0.2070   -0.8740 n         1 MOL     -0.430763
    141 C43        -9.2190    0.6930   -0.4860 c3        1 MOL      0.011825
    142 C44        -8.7850    1.8010    0.4740 c         1 MOL      0.483330
    143 O21        -7.9170    1.6010    1.3500 o         1 MOL     -0.507279
    144 C45       -10.2560   -0.2210    0.2350 c3        1 MOL     -0.292440
    145 C46       -11.5530    0.4780    0.6660 c3        1 MOL      0.127886
    146 C47       -12.5340   -0.3870    1.4110 c3        1 MOL      0.003155
    147 C48       -13.8040    0.3950    1.7740 c3        1 MOL     -0.070492
    148 N13       -14.7030    0.7380    0.6750 n4        1 MOL     -0.405199
    149 H67        -7.5480   -0.3700   -0.0200 hn        1 MOL      0.288115
    150 H68        -9.7050    1.1870   -1.3230 h1        1 MOL      0.078876
    151 H69        -9.9360   -0.4830    1.2530 hc        1 MOL      0.130466
    152 H70       -10.4180   -1.1270   -0.3560 hc        1 MOL      0.130466
    153 H71       -12.0990    0.8840   -0.1760 hc        1 MOL     -0.032483
    154 H72       -11.2280    1.2420    1.3790 hc        1 MOL     -0.032483
    155 H73       -12.0360   -0.7180    2.3210 hc        1 MOL      0.032084
    156 H74       -12.6990   -1.3150    0.8580 hc        1 MOL      0.032084
    157 H75       -13.5710    1.3080    2.3170 hx        1 MOL      0.125036
    158 H76       -14.4020   -0.1430    2.5090 hx        1 MOL      0.125036
    159 H77       -15.6350    0.9130    1.0360 hn        1 MOL      0.324421
    160 H78       -14.3270    1.5040    0.1350 hn        1 MOL      0.324421
    161 H79       -14.8220   -0.0460    0.0540 hn        1 MOL      0.324421
    162 N14        -9.3580    2.9840    0.4470 n         1 MOL     -0.492598
    163 C49        -8.9990    4.1690    1.2030 c3        1 MOL      0.375298
    164 C50        -7.5990    4.8120    1.2050 c         1 MOL      0.289963
    165 O22        -7.3240    5.3840    2.2550 o         1 MOL     -0.500961
    166 C51       -10.0440    5.2790    0.9530 c3        1 MOL      0.011875
    167 C52       -11.4650    4.8430    1.3250 c3        1 MOL     -0.161622
    168 C53       -12.5240    5.7520    0.7130 c         1 MOL      0.669987
    169 O23       -12.3120    6.9560    0.5430 o         1 MOL     -0.680263
    170 O24       -13.5700    5.2590    0.2180 o         1 MOL     -0.680263
    171 H80       -10.2270    3.0470   -0.0540 hn        1 MOL      0.290166
    172 H81        -9.1130    3.8040    2.2250 h1        1 MOL      0.015060
    173 H82        -9.9900    5.3400   -0.1330 hc        1 MOL      0.027138
    174 H83        -9.7620    6.1440    1.5480 hc        1 MOL      0.027138
    175 H84       -11.5920    4.7970    2.4120 hc        1 MOL     -0.002100
    176 H85       -11.7270    3.8460    0.9830 hc        1 MOL     -0.002100
    177 N15        -6.7080    4.8890    0.1690 n         1 MOL     -0.286245
    178 C54        -6.8840    4.5250   -1.2510 c3        1 MOL     -0.126750
    179 H86        -6.8620    3.4400   -1.3520 h1        1 MOL      0.070233
    180 H87        -7.8420    4.9030   -1.6070 h1        1 MOL      0.070233
    181 H88        -6.0790    4.9610   -1.8410 h1        1 MOL      0.070233
    182 H89        -5.8190    5.2900    0.4340 hn        1 MOL      0.281372
    183 Ca1         5.9150    4.9960   -0.5340 Ca        1 MOL      1.717544
    184 O25         3.3600    4.7410   -1.2460 oh        1 MOL     -0.870830
    185 H90         3.5330    4.3120   -0.4050 ho        1 MOL      0.426199
    186 H91         2.4050    4.7990   -1.2900 ho        1 MOL      0.426199
    187 O26         5.4290    2.8590   -2.2190 oh        1 MOL     -0.870830
    188 H92         6.2270    2.7710   -2.7430 ho        1 MOL      0.426199
    189 H93         4.9210    2.0760   -2.4340 ho        1 MOL      0.426199
@<TRIPOS>BOND
     1    1    2 1   
     2    1    4 1   
     3    1    5 1   
     4    1    6 1   
     5    2    3 2   
     6    2    7 1   
     7    7    8 1   
     8    7   15 1   
     9    8    9 1   
    10    8   11 1   
    11    8   16 1   
    12    9   10 2   
    13    9   19 1   
    14   11   12 1   
    15   11   17 1   
    16   11   18 1   
    17   12   13 1   
    18   12   14 1   
    19   19   20 1   
    20   19   28 1   
    21   20   21 1   
    22   20   23 1   
    23   20   29 1   
    24   21   22 2   
    25   21   41 1   
    26   23   24 1   
    27   23   30 1   
    28   23   31 1   
    29   24   25 1   
    30   24   32 1   
    31   24   33 1   
    32   25   26 1   
    33   25   34 1   
    34   25   35 1   
    35   26   27 1   
    36   26   36 1   
    37   26   37 1   
    38   27   38 1   
    39   27   39 1   
    40   27   40 1   
    41   41   42 1   
    42   41   49 1   
    43   42   43 1   
    44   42   45 1   
    45   42   50 1   
    46   43   44 2   
    47   43   53 1   
    48   45   46 1   
    49   45   51 1   
    50   45   52 1   
    51   46   47 1   
    52   46   48 1   
    53   53   54 1   
    54   53   57 1   
    55   54   55 1   
    56   54   58 1   
    57   54   59 1   
    58   55   56 2   
    59   55   60 1   
    60   60   61 1   
    61   60   68 1   
    62   61   62 1   
    63   61   64 1   
    64   61   69 1   
    65   62   63 2   
    66   62   72 1   
    67   64   65 1   
    68   64   70 1   
    69   64   71 1   
    70   65   66 1   
    71   65   67 1   
    72   72   73 1   
    73   72   76 1   
    74   73   74 1   
    75   73   77 1   
    76   73   78 1   
    77   74   75 2   
    78   74   79 1   
    79   79   80 1   
    80   79   86 1   
    81   80   81 1   
    82   80   83 1   
    83   80   87 1   
    84   81   82 2   
    85   81   93 1   
    86   83   84 1   
    87   83   85 1   
    88   83   88 1   
    89   84   90 1   
    90   84   91 1   
    91   84   92 1   
    92   85   89 1   
    93   93   94 1   
    94   93  101 1   
    95   94   95 1   
    96   94   97 1   
    97   94  102 1   
    98   95   96 2   
    99   95  112 1   
   100   97   98 1   
   101   97   99 1   
   102   97  103 1   
   103   98  100 1   
   104   98  104 1   
   105   98  105 1   
   106   99  106 1   
   107   99  107 1   
   108   99  108 1   
   109  100  109 1   
   110  100  110 1   
   111  100  111 1   
   112  112  113 1   
   113  112  119 1   
   114  113  114 1   
   115  113  116 1   
   116  113  120 1   
   117  114  115 2   
   118  114  126 1   
   119  116  117 1   
   120  116  118 1   
   121  116  121 1   
   122  117  123 1   
   123  117  124 1   
   124  117  125 1   
   125  118  122 1   
   126  126  127 1   
   127  126  133 1   
   128  127  128 1   
   129  127  130 1   
   130  127  134 1   
   131  128  129 2   
   132  128  140 1   
   133  130  131 1   
   134  130  132 1   
   135  130  135 1   
   136  131  137 1   
   137  131  138 1   
   138  131  139 1   
   139  132  136 1   
   140  140  141 1   
   141  140  149 1   
   142  141  142 1   
   143  141  144 1   
   144  141  150 1   
   145  142  143 2   
   146  142  162 1   
   147  144  145 1   
   148  144  151 1   
   149  144  152 1   
   150  145  146 1   
   151  145  153 1   
   152  145  154 1   
   153  146  147 1   
   154  146  155 1   
   155  146  156 1   
   156  147  148 1   
   157  147  157 1   
   158  147  158 1   
   159  148  159 1   
   160  148  160 1   
   161  148  161 1   
   162  162  163 1   
   163  162  171 1   
   164  163  164 1   
   165  163  166 1   
   166  163  172 1   
   167  164  165 2   
   168  164  177 1   
   169  166  167 1   
   170  166  173 1   
   171  166  174 1   
   172  167  168 1   
   173  167  175 1   
   174  167  176 1   
   175  168  169 1   
   176  168  170 1   
   177  177  178 1   
   178  177  182 1   
   179  178  179 1   
   180  178  180 1   
   181  178  181 1   
   182  184  185 1   
   183  184  186 1   
   184  187  188 1   
   185  187  189 1   
@<TRIPOS>SUBSTRUCTURE
     1 MOL         1 TEMP              0 ****  ****    0 ROOT
