@<TRIPOS>MOLECULE
MOL
  178   175     1     0     0
SMALL
resp


@<TRIPOS>ATOM
      1 C1         -9.3220    6.6770   -0.0190 c3        1 MOL     -0.264856
      2 C2         -8.4910    5.5360   -0.6380 c         1 MOL      0.618698
      3 O1         -7.6860    5.7420   -1.5490 o         1 MOL     -0.571004
      4 H1         -8.8150    7.0560    0.8680 hc        1 MOL      0.070035
      5 H2         -9.4310    7.4830   -0.7460 hc        1 MOL      0.070035
      6 H3        -10.3060    6.3010    0.2590 hc        1 MOL      0.070035
      7 N1         -8.5540    4.2650   -0.1760 n         1 MOL     -0.538608
      8 C3         -9.5770    3.7090    0.7370 c3        1 MOL      0.065599
      9 C4        -10.3570    2.5030    0.1350 c         1 MOL      0.529738
     10 O2         -9.7420    1.6890   -0.5640 o         1 MOL     -0.525703
     11 C5         -9.0500    3.3420    2.1630 c3        1 MOL     -0.150374
     12 C6         -7.6650    2.7300    2.2090 c         1 MOL      0.716167
     13 O3         -7.0420    2.5790    3.2520 o         1 MOL     -0.669975
     14 O4         -7.2200    2.2050    1.1940 o         1 MOL     -0.669975
     15 H4         -7.9320    3.6160   -0.6250 hn        1 MOL      0.427881
     16 H5        -10.3600    4.4410    0.9280 h1        1 MOL      0.051374
     17 H6         -9.7160    2.6940    2.7320 hc        1 MOL      0.029653
     18 H7         -9.0290    4.2140    2.8140 hc        1 MOL      0.029653
     19 N2        -11.6920    2.3790    0.4460 n         1 MOL     -0.574040
     20 C7        -12.7290    1.3320    0.0980 c3        1 MOL      0.352260
     21 C8        -12.3610   -0.1210    0.4980 c         1 MOL      0.292033
     22 O5        -13.2890   -0.9030    0.7910 o         1 MOL     -0.535979
     23 C9        -13.1830    1.4130   -1.3590 c3        1 MOL     -0.212090
     24 H8        -12.1030    3.1450    0.9720 hn        1 MOL      0.292196
     25 H9        -13.6620    1.5630    0.6090 h1        1 MOL      0.002793
     26 H10       -12.4170    0.9890   -2.0130 hc        1 MOL      0.063642
     27 H11       -14.0950    0.8310   -1.4670 hc        1 MOL      0.063642
     28 H12       -13.2980    2.4520   -1.6450 hc        1 MOL      0.063642
     29 N3        -11.0870   -0.4480    0.6450 n         1 MOL     -0.110618
     30 C10       -10.4390   -1.8170    0.8860 c3        1 MOL      0.015656
     31 C11        -9.0420   -1.6350    1.5080 c         1 MOL      0.272743
     32 O6         -8.4250   -0.5090    1.5010 o         1 MOL     -0.408987
     33 C12       -10.4370   -2.5620   -0.4710 c3        1 MOL     -0.222685
     34 C13        -9.6820   -1.8480   -1.5810 c         1 MOL      0.691582
     35 O7        -10.0590   -1.9070   -2.7990 o         1 MOL     -0.675270
     36 O8         -8.5050   -1.3760   -1.4030 o         1 MOL     -0.675270
     37 H13       -10.5480    0.3910    0.5460 hn        1 MOL      0.061870
     38 H14       -11.0470   -2.3530    1.6180 h1        1 MOL      0.076833
     39 H15       -11.4640   -2.6020   -0.8230 hc        1 MOL      0.076065
     40 H16        -9.9710   -3.5130   -0.2480 hc        1 MOL      0.076065
     41 N4         -8.4930   -2.7330    2.0990 n         1 MOL     -0.186207
     42 C14        -7.0970   -2.8690    2.5120 c3        1 MOL     -0.390140
     43 C15        -6.0370   -2.4050    1.5030 c         1 MOL      0.718337
     44 O9         -6.3170   -1.9010    0.4220 o         1 MOL     -0.525266
     45 H17        -9.1240   -3.5120    2.2570 hn        1 MOL      0.264570
     46 H18        -6.8500   -3.9220    2.6300 h1        1 MOL      0.151407
     47 H19        -6.8250   -2.2450    3.3670 h1        1 MOL      0.151407
     48 N5         -4.7860   -2.5980    1.9100 n         1 MOL     -0.656378
     49 C16        -3.7100   -1.9700    1.1190 c3        1 MOL      0.152211
     50 C17        -2.5390   -3.0110    1.0010 c         1 MOL      0.683114
     51 O10        -2.4900   -3.8940    1.8710 o         1 MOL     -0.558882
     52 C18        -3.2760   -0.6900    1.8730 c3        1 MOL     -0.435645
     53 C19        -4.4430    0.3360    1.8200 c         1 MOL      0.656403
     54 N6         -5.1710    0.4990    2.8780 n         1 MOL     -0.633781
     55 O11        -4.7860    0.7130    0.7350 o         1 MOL     -0.543854
     56 H20        -4.6640   -3.0020    2.8230 hn        1 MOL      0.352611
     57 H21        -3.9540   -1.8160    0.0670 h1        1 MOL      0.012463
     58 H22        -2.4140   -0.2360    1.3940 hc        1 MOL      0.146654
     59 H23        -3.0630   -0.8760    2.9240 hc        1 MOL      0.146654
     60 H24        -4.9120    0.0110    3.7200 hn        1 MOL      0.320181
     61 H25        -5.9300    1.1600    2.8140 hn        1 MOL      0.320181
     62 N7         -1.6870   -2.9190   -0.0700 n         1 MOL     -0.528459
     63 C20        -0.5720   -3.8720   -0.3510 c3        1 MOL     -0.055396
     64 C21        -0.1550   -3.6310   -1.8430 c         1 MOL      0.609663
     65 O12        -0.8880   -3.0030   -2.6020 o         1 MOL     -0.564532
     66 H26        -1.9600   -2.3550   -0.8660 hn        1 MOL      0.305810
     67 H27        -0.9640   -4.8860   -0.2090 h1        1 MOL      0.110297
     68 H28         0.2790   -3.6920    0.2980 h1        1 MOL      0.110297
     69 N8          0.9980   -4.1680   -2.3130 n         1 MOL     -0.363460
     70 C22         1.8070   -5.1950   -1.6500 c3        1 MOL     -0.246600
     71 C23         2.9740   -4.5690   -0.8000 c         1 MOL      0.484479
     72 O13         3.6220   -5.2640   -0.0500 o         1 MOL     -0.531169
     73 C24         2.2120   -6.2080   -2.7910 c3        1 MOL      0.351249
     74 C25         0.9300   -6.7860   -3.3910 c3        1 MOL     -0.318760
     75 O14         2.9230   -5.5130   -3.8300 oh        1 MOL     -0.581329
     76 H29         1.2760   -3.8630   -3.2320 hn        1 MOL      0.318456
     77 H30         1.2010   -5.6410   -0.8520 h1        1 MOL      0.120560
     78 H31         2.8190   -7.0410   -2.4380 h1        1 MOL      0.013808
     79 H32         3.4680   -6.1790   -4.2570 ho        1 MOL      0.388068
     80 H33         0.2680   -7.2320   -2.6410 hc        1 MOL      0.071564
     81 H34         0.4290   -5.9310   -3.8290 hc        1 MOL      0.071564
     82 H35         1.0940   -7.5450   -4.1650 hc        1 MOL      0.071564
     83 N9          3.1280   -3.2430   -0.9730 n         1 MOL     -0.115071
     84 C26         4.1180   -2.3720   -0.3210 c3        1 MOL     -0.169188
     85 C27         3.4620   -1.0690    0.0870 c         1 MOL      0.494069
     86 O15         2.5470   -0.6590   -0.5960 o         1 MOL     -0.499694
     87 C28         5.4290   -2.1130   -1.1650 c3        1 MOL     -0.084397
     88 C29         5.1520   -1.4410   -2.5270 c3        1 MOL      0.217897
     89 C30         6.1820   -3.3890   -1.2160 c3        1 MOL     -0.052246
     90 C31         6.2950   -1.5420   -3.5130 c3        1 MOL     -0.232970
     91 H36         2.3660   -2.7350   -1.4170 hn        1 MOL      0.124658
     92 H37         4.3130   -2.8540    0.6340 h1        1 MOL      0.126581
     93 H38         6.1320   -1.4910   -0.6130 hc        1 MOL      0.060652
     94 H39         4.8780   -0.3990   -2.3830 hc        1 MOL      0.004733
     95 H40         4.2830   -1.8740   -3.0190 hc        1 MOL      0.004733
     96 H41         5.6100   -4.1270   -1.7700 hc        1 MOL      0.003399
     97 H42         7.1970   -3.2620   -1.6010 hc        1 MOL      0.003399
     98 H43         6.2360   -3.7630   -0.1970 hc        1 MOL      0.003399
     99 H44         7.2810   -1.3120   -3.1180 hc        1 MOL      0.034116
    100 H45         6.3340   -2.5960   -3.7960 hc        1 MOL      0.034116
    101 H46         6.0170   -0.9740   -4.3990 hc        1 MOL      0.034116
    102 N10         3.7890   -0.4510    1.1590 n         1 MOL     -0.428091
    103 C32         4.9470   -0.7700    2.0450 c3        1 MOL      0.205707
    104 C33         6.3330   -0.1250    1.7010 c         1 MOL      0.612532
    105 O16         6.4510    1.0120    1.2790 o         1 MOL     -0.605964
    106 C34         4.5430   -0.4640    3.4570 c3        1 MOL     -0.321912
    107 C35         3.2560   -1.0770    4.0080 c         1 MOL      0.768872
    108 O17         2.5900   -1.8860    3.3440 o         1 MOL     -0.728851
    109 O18         2.9080   -0.8000    5.1550 o         1 MOL     -0.728851
    110 H47         3.3540    0.4540    1.3030 hn        1 MOL      0.333769
    111 H48         5.1040   -1.8540    2.0660 h1        1 MOL      0.035620
    112 H49         4.5550    0.6220    3.5690 hc        1 MOL      0.035324
    113 H50         5.4420   -0.7080    4.0400 hc        1 MOL      0.035324
    114 N11         7.4070   -0.9010    1.8230 n         1 MOL     -0.547550
    115 C36         8.8090   -0.4540    1.5780 c3        1 MOL      0.360944
    116 C37         9.2590   -0.7110    0.1460 c         1 MOL      0.231493
    117 O19         8.9640   -1.7730   -0.3810 o         1 MOL     -0.491750
    118 C38         9.7560   -1.0680    2.6080 c3        1 MOL     -0.223953
    119 C39        11.0610   -0.3470    2.8640 ca        1 MOL      0.113327
    120 C40        11.9810   -0.3110    1.8370 ca        1 MOL     -0.157604
    121 C41        11.3770    0.1730    4.1020 ca        1 MOL     -0.157604
    122 C42        13.2050    0.4590    2.0700 ca        1 MOL     -0.145730
    123 C43        12.6940    0.5940    4.4200 ca        1 MOL     -0.145730
    124 C44        13.5800    0.8830    3.3890 ca        1 MOL     -0.093102
    125 H51         7.3280   -1.8190    2.2360 hn        1 MOL      0.281308
    126 H52         8.7610    0.6280    1.7520 h1        1 MOL      0.026166
    127 H53        10.0500   -2.0900    2.3440 hc        1 MOL      0.067043
    128 H54         9.2870   -1.1660    3.5890 hc        1 MOL      0.067043
    129 H55        11.7390   -0.6870    0.8550 ha        1 MOL      0.126870
    130 H56        10.6380    0.1610    4.8900 ha        1 MOL      0.126870
    131 H57        13.9740    0.5230    1.3230 ha        1 MOL      0.112068
    132 H58        12.8540    0.9750    5.4170 ha        1 MOL      0.112068
    133 H59        14.5230    1.3780    3.5810 ha        1 MOL      0.103775
    134 N12         9.8880    0.2510   -0.6030 n         1 MOL      0.030701
    135 C45        10.3560    1.6070   -0.1780 c3        1 MOL      0.003018
    136 C46         9.4020    2.6930   -0.3180 c         1 MOL      0.535978
    137 O20         9.5330    3.7260    0.3960 o         1 MOL     -0.570766
    138 C47        11.6020    1.8100   -0.9410 c3        1 MOL     -0.020843
    139 C48        11.4140    1.1270   -2.2940 c3        1 MOL     -0.046171
    140 C49        10.5770   -0.0800   -1.8900 c3        1 MOL      0.045316
    141 H60        10.5930    1.6240    0.8840 h1        1 MOL      0.040503
    142 H61        11.8710    2.8650   -1.0750 hc        1 MOL      0.009250
    143 H62        12.4000    1.2960   -0.3990 hc        1 MOL      0.009250
    144 H63        10.8530    1.8100   -2.9390 hc        1 MOL      0.022317
    145 H64        12.3120    0.7910   -2.8100 hc        1 MOL      0.022317
    146 H65         9.9040   -0.3210   -2.7220 h1        1 MOL      0.021768
    147 H66        11.2580   -0.9090   -1.7210 h1        1 MOL      0.021768
    148 N13         8.3610    2.6260   -1.2020 n         1 MOL     -0.382218
    149 C50         7.4000    3.6320   -1.3870 c3        1 MOL      0.081806
    150 C51         7.8930    4.9450   -1.9190 c         1 MOL      0.631536
    151 O21         8.4020    4.9920   -3.0050 o         1 MOL     -0.608391
    152 C52         6.1930    3.1450   -2.2370 c3        1 MOL     -0.005405
    153 C53         5.0740    4.2660   -2.1870 c3        1 MOL     -0.294053
    154 C54         3.8090    3.6400   -2.7900 c         1 MOL      0.675247
    155 O22         3.6700    3.2840   -4.0370 o         1 MOL     -0.721337
    156 O23         2.9490    3.1950   -2.0200 o         1 MOL     -0.721337
    157 H67         8.2120    1.7920   -1.7440 hn        1 MOL      0.216340
    158 H68         6.9720    3.8580   -0.4000 h1        1 MOL      0.108251
    159 H69         5.6600    2.3110   -1.7860 hc        1 MOL      0.048972
    160 H70         6.4750    2.8310   -3.2520 hc        1 MOL      0.048972
    161 H71         5.3600    5.1440   -2.7730 hc        1 MOL      0.035171
    162 H72         4.8290    4.5250   -1.1570 hc        1 MOL      0.035171
    163 N14         7.9590    6.0620   -1.1760 n         1 MOL     -0.465821
    164 C55         7.5700    6.2590    0.2080 c3        1 MOL     -0.140337
    165 H73         8.4580    6.4520    0.8110 h1        1 MOL      0.079555
    166 H74         6.8910    7.1090    0.2790 h1        1 MOL      0.079555
    167 H75         7.0690    5.3630    0.5770 h1        1 MOL      0.079555
    168 H76         7.9840    6.9580   -1.6480 hn        1 MOL      0.289478
    169 Ca1        -7.1310    0.4380   -0.5970 Ca        1 MOL      1.620746
    170 O24        -5.6150    2.5790   -1.4930 oh        1 MOL     -0.899476
    171 H77        -5.7310    2.3180   -2.4050 ho        1 MOL      0.442110
    172 H78        -4.6750    2.7320   -1.4120 ho        1 MOL      0.442110
    173 O25        -7.7290    1.5460   -2.8600 oh        1 MOL     -0.899476
    174 H79        -8.5730    1.8960   -3.1480 ho        1 MOL      0.442110
    175 H80        -7.3530    1.1500   -3.6540 ho        1 MOL      0.442110
    176 O26        -5.4770   -0.7770   -2.3840 oh        1 MOL     -0.899476
    177 H81        -4.8070   -0.4340   -2.9800 ho        1 MOL      0.442110
    178 H82        -5.2960   -1.7220   -2.3370 ho        1 MOL      0.442110
@<TRIPOS>BOND
     1    1    2 1   
     2    1    4 1   
     3    1    5 1   
     4    1    6 1   
     5    2    3 2   
     6    2    7 1   
     7    7    8 1   
     8    7   15 1   
     9    8    9 1   
    10    8   11 1   
    11    8   16 1   
    12    9   10 2   
    13    9   19 1   
    14   11   12 1   
    15   11   17 1   
    16   11   18 1   
    17   12   13 1   
    18   12   14 1   
    19   19   20 1   
    20   19   24 1   
    21   20   21 1   
    22   20   23 1   
    23   20   25 1   
    24   21   22 2   
    25   21   29 1   
    26   23   26 1   
    27   23   27 1   
    28   23   28 1   
    29   29   30 1   
    30   29   37 1   
    31   30   31 1   
    32   30   33 1   
    33   30   38 1   
    34   31   32 2   
    35   31   41 1   
    36   33   34 1   
    37   33   39 1   
    38   33   40 1   
    39   34   35 1   
    40   34   36 1   
    41   41   42 1   
    42   41   45 1   
    43   42   43 1   
    44   42   46 1   
    45   42   47 1   
    46   43   44 2   
    47   43   48 1   
    48   48   49 1   
    49   48   56 1   
    50   49   50 1   
    51   49   52 1   
    52   49   57 1   
    53   50   51 2   
    54   50   62 1   
    55   52   53 1   
    56   52   58 1   
    57   52   59 1   
    58   53   54 1   
    59   53   55 2   
    60   54   60 1   
    61   54   61 1   
    62   62   63 1   
    63   62   66 1   
    64   63   64 1   
    65   63   67 1   
    66   63   68 1   
    67   64   65 2   
    68   64   69 1   
    69   69   70 1   
    70   69   76 1   
    71   70   71 1   
    72   70   73 1   
    73   70   77 1   
    74   71   72 2   
    75   71   83 1   
    76   73   74 1   
    77   73   75 1   
    78   73   78 1   
    79   74   80 1   
    80   74   81 1   
    81   74   82 1   
    82   75   79 1   
    83   83   84 1   
    84   83   91 1   
    85   84   85 1   
    86   84   87 1   
    87   84   92 1   
    88   85   86 2   
    89   85  102 1   
    90   87   88 1   
    91   87   89 1   
    92   87   93 1   
    93   88   90 1   
    94   88   94 1   
    95   88   95 1   
    96   89   96 1   
    97   89   97 1   
    98   89   98 1   
    99   90   99 1   
   100   90  100 1   
   101   90  101 1   
   102  102  103 1   
   103  102  110 1   
   104  103  104 1   
   105  103  106 1   
   106  103  111 1   
   107  104  105 2   
   108  104  114 1   
   109  106  107 1   
   110  106  112 1   
   111  106  113 1   
   112  107  108 1   
   113  107  109 1   
   114  114  115 1   
   115  114  125 1   
   116  115  116 1   
   117  115  118 1   
   118  115  126 1   
   119  116  117 2   
   120  116  134 1   
   121  118  119 1   
   122  118  127 1   
   123  118  128 1   
   124  119  120 ar  
   125  119  121 ar  
   126  120  122 ar  
   127  120  129 1   
   128  121  123 ar  
   129  121  130 1   
   130  122  124 ar  
   131  122  131 1   
   132  123  124 ar  
   133  123  132 1   
   134  124  133 1   
   135  134  135 1   
   136  134  140 1   
   137  135  136 1   
   138  135  138 1   
   139  135  141 1   
   140  136  137 2   
   141  136  148 1   
   142  138  139 1   
   143  138  142 1   
   144  138  143 1   
   145  139  140 1   
   146  139  144 1   
   147  139  145 1   
   148  140  146 1   
   149  140  147 1   
   150  148  149 1   
   151  148  157 1   
   152  149  150 1   
   153  149  152 1   
   154  149  158 1   
   155  150  151 2   
   156  150  163 1   
   157  152  153 1   
   158  152  159 1   
   159  152  160 1   
   160  153  154 1   
   161  153  161 1   
   162  153  162 1   
   163  154  155 1   
   164  154  156 1   
   165  163  164 1   
   166  163  168 1   
   167  164  165 1   
   168  164  166 1   
   169  164  167 1   
   170  170  171 1   
   171  170  172 1   
   172  173  174 1   
   173  173  175 1   
   174  176  177 1   
   175  176  178 1   
@<TRIPOS>SUBSTRUCTURE
     1 MOL         1 TEMP              0 ****  ****    0 ROOT
