@<TRIPOS>MOLECULE
MOL
  189   185     1     0     0
SMALL
resp


@<TRIPOS>ATOM
      1 C1          3.8300    4.7970   -3.0790 c3        1 MOL     -0.449183
      2 C2          4.6060    4.0660   -1.9590 c         1 MOL      0.674202
      3 O1          4.0560    3.6020   -0.9800 o         1 MOL     -0.449127
      4 H1          3.7440    4.1420   -3.9470 hc        1 MOL      0.118632
      5 H2          2.8340    5.0590   -2.7220 hc        1 MOL      0.118632
      6 H3          4.3660    5.7040   -3.3610 hc        1 MOL      0.118632
      7 N1          5.8680    3.8370   -2.1690 n         1 MOL     -0.571075
      8 C3          6.7540    2.7580   -1.7220 c3        1 MOL      0.230041
      9 C4          6.0120    1.4090   -1.6300 c         1 MOL      0.426291
     10 O2          5.4450    1.0130   -0.6450 o         1 MOL     -0.717257
     11 C5          7.6220    3.0700   -0.5230 c3        1 MOL     -0.293358
     12 C6          6.8820    3.8660    0.5660 c         1 MOL      0.744222
     13 O3          5.9970    3.3960    1.3510 o         1 MOL     -0.711976
     14 O4          7.2880    5.0010    0.8330 o         1 MOL     -0.711976
     15 H4          6.3180    4.4040   -2.8710 hn        1 MOL      0.288937
     16 H5          7.4420    2.5540   -2.5340 h1        1 MOL      0.015066
     17 H6          8.5150    3.6080   -0.8510 hc        1 MOL      0.079423
     18 H7          8.1230    2.2460   -0.0140 hc        1 MOL      0.079423
     19 N2          5.8260    0.7510   -2.7610 n         1 MOL     -0.446927
     20 C7          5.1560   -0.5950   -2.9710 c3        1 MOL      0.298513
     21 C8          5.9030   -1.7340   -2.1870 c         1 MOL      0.185671
     22 O5          6.5790   -2.5160   -2.9050 o         1 MOL     -0.549992
     23 C9          3.6160   -0.4660   -2.8700 c3        1 MOL      0.133820
     24 C10         2.8900   -1.7990   -3.1400 c3        1 MOL      0.051870
     25 C11         3.1160    0.7170   -3.6710 c3        1 MOL     -0.032807
     26 C12         3.1340   -2.2890   -4.5990 c3        1 MOL     -0.484464
     27 H8          6.2110    1.1070   -3.6200 hn        1 MOL      0.249892
     28 H9          5.3130   -0.9700   -3.9740 h1        1 MOL     -0.000037
     29 H10         3.4120   -0.2250   -1.8290 hc        1 MOL     -0.205950
     30 H11         1.8100   -1.6530   -3.0590 hc        1 MOL      0.068940
     31 H12         3.2310   -2.4970   -2.3750 hc        1 MOL      0.068940
     32 H13         3.6320    0.7180   -4.6320 hc        1 MOL     -0.017546
     33 H14         2.0470    0.7890   -3.8560 hc        1 MOL     -0.017546
     34 H15         3.4190    1.6400   -3.1890 hc        1 MOL     -0.017546
     35 H16         4.1980   -2.4630   -4.7590 hc        1 MOL      0.108415
     36 H17         2.4040   -3.0780   -4.7510 hc        1 MOL      0.108415
     37 H18         2.7730   -1.5960   -5.3640 hc        1 MOL      0.108415
     38 N3          6.0050   -1.6790   -0.8700 n         1 MOL      0.038841
     39 C13         7.0830   -2.4780   -0.2010 c3        1 MOL      0.115630
     40 C14         6.7450   -3.9750   -0.0080 c         1 MOL      0.527724
     41 O6          7.6240   -4.7960    0.0740 o         1 MOL     -0.527156
     42 C15         7.4530   -1.7150    1.0400 c3        1 MOL     -0.352433
     43 C16         8.6920   -2.2940    1.7520 c         1 MOL      0.802463
     44 O7          9.6480   -2.5280    1.0070 o         1 MOL     -0.754777
     45 O8          8.7650   -2.4570    2.9830 o         1 MOL     -0.754777
     46 H19         5.4280   -1.0260   -0.3560 hn        1 MOL      0.341885
     47 H20         7.9400   -2.4030   -0.8730 h1        1 MOL      0.028350
     48 H21         6.6270   -1.8320    1.7430 hc        1 MOL      0.082813
     49 H22         7.6050   -0.6610    0.8260 hc        1 MOL      0.082813
     50 N4          5.4860   -4.4010    0.1290 n         1 MOL     -0.598467
     51 C17         4.2290   -3.6040    0.2960 c3        1 MOL      0.183792
     52 C18         3.1100   -4.3940    0.8930 c         1 MOL      0.570140
     53 O9          3.1210   -5.6410    0.7550 o         1 MOL     -0.590173
     54 H23         5.3780   -5.3930    0.3190 hn        1 MOL      0.321503
     55 H24         3.7930   -3.1120   -0.5660 h1        1 MOL     -0.001270
     56 H25         4.4970   -2.7640    0.9440 h1        1 MOL     -0.001270
     57 N5          2.2030   -3.8230    1.6980 n         1 MOL     -0.459955
     58 C19         2.1600   -2.5070    2.3140 c3        1 MOL      0.069123
     59 C20         2.1990   -1.2740    1.3600 c         1 MOL      0.303766
     60 O10         3.2670   -0.6720    1.1850 o         1 MOL     -0.598496
     61 C21         3.2190   -2.4150    3.4920 c3        1 MOL     -0.372717
     62 C22         3.0760   -1.0570    4.2370 c         1 MOL      0.769412
     63 O11         4.1030   -0.6290    4.8850 o         1 MOL     -0.700577
     64 O12         1.9990   -0.4180    4.2290 o         1 MOL     -0.700577
     65 H26         1.4650   -4.4440    2.0180 hn        1 MOL      0.276866
     66 H27         1.1860   -2.5190    2.8030 h1        1 MOL      0.092868
     67 H28         4.2680   -2.3950    3.1810 hc        1 MOL      0.121296
     68 H29         2.9740   -3.1640    4.2510 hc        1 MOL      0.121296
     69 N6          1.1160   -0.9320    0.6780 n         1 MOL     -0.049243
     70 C23        -0.2480   -1.5250    0.7380 c3        1 MOL     -0.289559
     71 C24        -0.5850   -2.7110   -0.0390 c         1 MOL      0.448807
     72 O13         0.1920   -3.0310   -0.9360 o         1 MOL     -0.501131
     73 H30         1.1590   -0.1480    0.0410 hn        1 MOL      0.258142
     74 H31        -0.9030   -0.7220    0.3820 h1        1 MOL      0.108889
     75 H32        -0.5010   -1.6500    1.7810 h1        1 MOL      0.108889
     76 N7         -1.7150   -3.3310    0.2980 n         1 MOL     -0.281996
     77 C25        -2.4070   -4.4230   -0.4680 c3        1 MOL     -0.232543
     78 C26        -2.6830   -4.0650   -1.9160 c         1 MOL      0.503537
     79 O14        -2.6030   -4.9610   -2.7970 o         1 MOL     -0.511552
     80 C27        -3.6750   -4.7340    0.3150 c3        1 MOL      0.259877
     81 C28        -3.4620   -5.4960    1.6770 c3        1 MOL     -0.311891
     82 C29        -2.8160   -6.8890    1.5060 c         1 MOL      0.755447
     83 N8         -2.8870   -7.7540    2.5190 n         1 MOL     -0.863173
     84 O15        -2.2180   -7.1700    0.4700 o         1 MOL     -0.527995
     85 H33        -2.2260   -2.8270    1.0090 hn        1 MOL      0.232432
     86 H34        -1.6930   -5.2450   -0.3730 h1        1 MOL      0.210865
     87 H35        -4.3580   -5.2900   -0.3320 hc        1 MOL     -0.042646
     88 H36        -4.1760   -3.7800    0.4890 hc        1 MOL     -0.042646
     89 H37        -4.4520   -5.6070    2.1330 hc        1 MOL      0.051697
     90 H38        -2.9850   -4.8160    2.3810 hc        1 MOL      0.051697
     91 H39        -3.1720   -7.4180    3.4270 hn        1 MOL      0.378254
     92 H40        -2.5680   -8.7080    2.4790 hn        1 MOL      0.378254
     93 N9         -3.1000   -2.8530   -2.1790 n         1 MOL     -0.423908
     94 C30        -3.4270   -2.2850   -3.4990 c3        1 MOL     -0.042231
     95 C31        -4.8040   -1.6600   -3.6500 c         1 MOL      0.526390
     96 O16        -5.3080   -1.4590   -4.7750 o         1 MOL     -0.536033
     97 C32        -2.2370   -1.3990   -4.0130 c3        1 MOL     -0.023057
     98 C33        -0.8610   -2.0690   -3.9280 c3        1 MOL     -0.066719
     99 C34        -2.1980   -0.0220   -3.2320 c3        1 MOL     -0.066719
    100 H41        -3.2570   -2.2320   -1.4010 hn        1 MOL      0.263284
    101 H42        -3.3710   -3.1060   -4.2240 h1        1 MOL      0.111663
    102 H43        -2.5210   -1.1980   -5.0510 hc        1 MOL      0.031678
    103 H44        -0.5490   -1.7880   -2.9190 hc        1 MOL      0.036514
    104 H45        -0.7850   -3.1350   -4.0980 hc        1 MOL      0.036514
    105 H46        -0.1450   -1.6500   -4.6270 hc        1 MOL      0.036514
    106 H47        -3.1890    0.3900   -3.0570 hc        1 MOL      0.036514
    107 H48        -1.8540   -0.2610   -2.2220 hc        1 MOL      0.036514
    108 H49        -1.5960    0.7400   -3.7380 hc        1 MOL      0.036514
    109 N10        -5.4350   -1.2790   -2.5290 n         1 MOL     -0.424425
    110 C35        -6.8410   -0.7960   -2.4710 c3        1 MOL      0.197847
    111 C36        -7.0020    0.5170   -1.7130 c         1 MOL      0.384063
    112 O17        -8.0600    1.1850   -1.8330 o         1 MOL     -0.496579
    113 C37        -7.6520   -1.9710   -1.8780 c3        1 MOL     -0.400501
    114 C38        -9.1810   -1.8110   -1.8390 c         1 MOL      0.742865
    115 N11        -9.9250   -1.9230   -2.9910 n         1 MOL     -0.923318
    116 O18        -9.8110   -1.4880   -0.8250 o         1 MOL     -0.545183
    117 H50        -4.9940   -1.4260   -1.6270 hn        1 MOL      0.327000
    118 H51        -7.2370   -0.6740   -3.4730 h1        1 MOL      0.053954
    119 H52        -7.3410   -2.0830   -0.8450 hc        1 MOL      0.103192
    120 H53        -7.4170   -2.9000   -2.3990 hc        1 MOL      0.103192
    121 H54        -9.4380   -2.1920   -3.8360 hn        1 MOL      0.406276
    122 H55       -10.8780   -1.5910   -2.9530 hn        1 MOL      0.406276
    123 N12        -6.0340    0.7930   -0.8950 n         1 MOL     -0.302750
    124 C39        -6.0890    1.9170    0.0520 c3        1 MOL      0.019419
    125 C40        -4.7470    2.5000    0.5150 c         1 MOL      0.611270
    126 O19        -3.7270    1.8760    0.4930 o         1 MOL     -0.514099
    127 C41        -6.9670    1.4700    1.2460 c3        1 MOL     -0.386928
    128 C42        -6.5880    0.1920    2.0050 ca        1 MOL      0.077482
    129 C43        -5.5810    0.1890    3.0090 ca        1 MOL     -0.136936
    130 C44        -7.4260   -0.9120    1.7340 ca        1 MOL     -0.136936
    131 C45        -5.3650   -0.9910    3.7050 ca        1 MOL     -0.287199
    132 C46        -7.0890   -2.0830    2.3770 ca        1 MOL     -0.287199
    133 C47        -6.0950   -2.1220    3.3630 ca        1 MOL      0.427535
    134 O20        -5.9600   -3.2150    4.1450 oh        1 MOL     -0.585641
    135 H56        -5.2540    0.1560   -0.7720 hn        1 MOL      0.189768
    136 H57        -6.6100    2.7490   -0.4170 h1        1 MOL      0.070814
    137 H58        -7.9350    1.2040    0.8190 hc        1 MOL      0.146954
    138 H59        -7.1960    2.2460    1.9770 hc        1 MOL      0.146954
    139 H60        -5.0820    1.1200    3.2560 ha        1 MOL      0.165953
    140 H61        -8.2260   -0.8710    1.0040 ha        1 MOL      0.165953
    141 H62        -4.8210   -0.9750    4.6350 ha        1 MOL      0.144988
    142 H63        -7.7130   -2.9330    2.1370 ha        1 MOL      0.144988
    143 H64        -5.1340   -3.1480    4.6270 ho        1 MOL      0.409787
    144 N13        -4.8110    3.8120    0.7710 n         1 MOL     -0.744893
    145 C48        -3.7490    4.6230    1.4460 c3        1 MOL      0.204728
    146 C49        -2.3080    4.7140    0.7230 c         1 MOL      0.252841
    147 O21        -1.4130    5.4140    1.0870 o         1 MOL     -0.434518
    148 C50        -3.6110    4.3270    2.9730 c3        1 MOL      0.003105
    149 C51        -4.9300    4.5290    3.7470 c3        1 MOL     -0.011123
    150 C52        -4.7910    4.2190    5.2050 c         1 MOL      0.661791
    151 O22        -5.4020    3.2570    5.7030 o         1 MOL     -0.717899
    152 O23        -4.0580    4.9440    5.8810 o         1 MOL     -0.717899
    153 H65        -5.7860    4.0650    0.8040 hn        1 MOL      0.362594
    154 H66        -4.0930    5.6590    1.3920 h1        1 MOL      0.052928
    155 H67        -2.9190    5.0570    3.3690 hc        1 MOL      0.036283
    156 H68        -3.2300    3.3140    3.0750 hc        1 MOL      0.036283
    157 H69        -5.8000    4.0390    3.2900 hc        1 MOL     -0.052674
    158 H70        -5.1860    5.5890    3.7300 hc        1 MOL     -0.052674
    159 N14        -2.2300    4.0320   -0.4210 n         1 MOL     -0.153614
    160 C53        -1.0840    4.3980   -1.3340 c3        1 MOL     -0.318020
    161 C54        -1.4140    5.5290   -2.3760 c         1 MOL      0.659190
    162 O24        -0.5810    6.3430   -2.6590 o         1 MOL     -0.547063
    163 C55        -0.7580    3.1280   -2.0880 c3        1 MOL     -0.248989
    164 C56        -0.3580    1.9460   -1.1950 c3        1 MOL      0.408435
    165 C57         0.7720    2.2240   -0.1800 c         1 MOL      0.238531
    166 O25         0.5870    2.7910    0.8830 o         1 MOL     -0.468467
    167 O26         1.8920    1.7110   -0.3610 o         1 MOL     -0.468467
    168 H71        -3.0060    3.4410   -0.7030 hn        1 MOL      0.258450
    169 H72        -0.1530    4.6580   -0.8350 h1        1 MOL      0.239875
    170 H73         0.1660    3.3630   -2.6190 hc        1 MOL      0.039561
    171 H74        -1.5150    2.8090   -2.7970 hc        1 MOL      0.039561
    172 H75        -0.0910    1.0150   -1.7070 hc        1 MOL     -0.102074
    173 H76        -1.2370    1.6630   -0.6120 hc        1 MOL     -0.102074
    174 N15        -2.6530    5.5820   -2.8570 n         1 MOL     -0.344379
    175 C58        -3.2740    6.5840   -3.7360 c3        1 MOL     -0.128487
    176 H77        -3.6060    6.1030   -4.6560 h1        1 MOL      0.073562
    177 H78        -4.1310    7.0310   -3.2300 h1        1 MOL      0.073562
    178 H79        -2.5460    7.3590   -3.9740 h1        1 MOL      0.073562
    179 H80        -3.3950    5.1260   -2.3270 hn        1 MOL      0.226522
    180 Ca1         3.8490    2.2130    1.1780 Ca        1 MOL      1.776615
    181 O27         5.2570    0.6720    2.8350 oh        1 MOL     -0.988862
    182 H81         4.9340    0.3100    3.6530 ho        1 MOL      0.453280
    183 H82         6.2020    0.7930    2.9710 ho        1 MOL      0.453280
    184 O28         3.0150    4.7410    1.8280 oh        1 MOL     -0.988862
    185 H83         2.1420    4.7300    2.2250 ho        1 MOL      0.453280
    186 H84         3.3830    5.5870    2.0920 ho        1 MOL      0.453280
    187 O29         2.3510    1.9910    3.2210 oh        1 MOL     -0.988862
    188 H85         2.1690    2.6220    3.9190 ho        1 MOL      0.453280
    189 H86         2.0540    1.1550    3.5760 ho        1 MOL      0.453280
@<TRIPOS>BOND
     1    1    2 1   
     2    1    4 1   
     3    1    5 1   
     4    1    6 1   
     5    2    3 2   
     6    2    7 1   
     7    7    8 1   
     8    7   15 1   
     9    8    9 1   
    10    8   11 1   
    11    8   16 1   
    12    9   10 2   
    13    9   19 1   
    14   11   12 1   
    15   11   17 1   
    16   11   18 1   
    17   12   13 1   
    18   12   14 1   
    19   19   20 1   
    20   19   27 1   
    21   20   21 1   
    22   20   23 1   
    23   20   28 1   
    24   21   22 2   
    25   21   38 1   
    26   23   24 1   
    27   23   25 1   
    28   23   29 1   
    29   24   26 1   
    30   24   30 1   
    31   24   31 1   
    32   25   32 1   
    33   25   33 1   
    34   25   34 1   
    35   26   35 1   
    36   26   36 1   
    37   26   37 1   
    38   38   39 1   
    39   38   46 1   
    40   39   40 1   
    41   39   42 1   
    42   39   47 1   
    43   40   41 2   
    44   40   50 1   
    45   42   43 1   
    46   42   48 1   
    47   42   49 1   
    48   43   44 1   
    49   43   45 1   
    50   50   51 1   
    51   50   54 1   
    52   51   52 1   
    53   51   55 1   
    54   51   56 1   
    55   52   53 2   
    56   52   57 1   
    57   57   58 1   
    58   57   65 1   
    59   58   59 1   
    60   58   61 1   
    61   58   66 1   
    62   59   60 2   
    63   59   69 1   
    64   61   62 1   
    65   61   67 1   
    66   61   68 1   
    67   62   63 1   
    68   62   64 1   
    69   69   70 1   
    70   69   73 1   
    71   70   71 1   
    72   70   74 1   
    73   70   75 1   
    74   71   72 2   
    75   71   76 1   
    76   76   77 1   
    77   76   85 1   
    78   77   78 1   
    79   77   80 1   
    80   77   86 1   
    81   78   79 2   
    82   78   93 1   
    83   80   81 1   
    84   80   87 1   
    85   80   88 1   
    86   81   82 1   
    87   81   89 1   
    88   81   90 1   
    89   82   83 1   
    90   82   84 2   
    91   83   91 1   
    92   83   92 1   
    93   93   94 1   
    94   93  100 1   
    95   94   95 1   
    96   94   97 1   
    97   94  101 1   
    98   95   96 2   
    99   95  109 1   
   100   97   98 1   
   101   97   99 1   
   102   97  102 1   
   103   98  103 1   
   104   98  104 1   
   105   98  105 1   
   106   99  106 1   
   107   99  107 1   
   108   99  108 1   
   109  109  110 1   
   110  109  117 1   
   111  110  111 1   
   112  110  113 1   
   113  110  118 1   
   114  111  112 2   
   115  111  123 1   
   116  113  114 1   
   117  113  119 1   
   118  113  120 1   
   119  114  115 1   
   120  114  116 2   
   121  115  121 1   
   122  115  122 1   
   123  123  124 1   
   124  123  135 1   
   125  124  125 1   
   126  124  127 1   
   127  124  136 1   
   128  125  126 2   
   129  125  144 1   
   130  127  128 1   
   131  127  137 1   
   132  127  138 1   
   133  128  129 ar  
   134  128  130 ar  
   135  129  131 ar  
   136  129  139 1   
   137  130  132 ar  
   138  130  140 1   
   139  131  133 ar  
   140  131  141 1   
   141  132  133 ar  
   142  132  142 1   
   143  133  134 1   
   144  134  143 1   
   145  144  145 1   
   146  144  153 1   
   147  145  146 1   
   148  145  148 1   
   149  145  154 1   
   150  146  147 2   
   151  146  159 1   
   152  148  149 1   
   153  148  155 1   
   154  148  156 1   
   155  149  150 1   
   156  149  157 1   
   157  149  158 1   
   158  150  151 1   
   159  150  152 1   
   160  159  160 1   
   161  159  168 1   
   162  160  161 1   
   163  160  163 1   
   164  160  169 1   
   165  161  162 2   
   166  161  174 1   
   167  163  164 1   
   168  163  170 1   
   169  163  171 1   
   170  164  165 1   
   171  164  172 1   
   172  164  173 1   
   173  165  166 1   
   174  165  167 1   
   175  174  175 1   
   176  174  179 1   
   177  175  176 1   
   178  175  177 1   
   179  175  178 1   
   180  181  182 1   
   181  181  183 1   
   182  184  185 1   
   183  184  186 1   
   184  187  188 1   
   185  187  189 1   
@<TRIPOS>SUBSTRUCTURE
     1 MOL         1 TEMP              0 ****  ****    0 ROOT
