@<TRIPOS>MOLECULE
MOL
  178   175     1     0     0
SMALL
resp


@<TRIPOS>ATOM
      1 C1          4.5890   -2.7290    3.2900 c3        1 MOL     -0.343631
      2 C2          5.7530   -1.8320    2.7500 c         1 MOL      0.745432
      3 O1          5.6230   -0.9550    1.8760 o         1 MOL     -0.593376
      4 H1          4.6410   -2.7750    4.3770 hc        1 MOL      0.093197
      5 H2          3.6320   -2.3030    2.9900 hc        1 MOL      0.093197
      6 H3          4.6840   -3.7340    2.8790 hc        1 MOL      0.093197
      7 N1          6.9700   -2.0530    3.2780 n         1 MOL     -0.722121
      8 C3          8.2060   -1.3580    2.9120 c3        1 MOL      0.423085
      9 C4          8.5850   -1.6730    1.4470 c         1 MOL      0.513185
     10 O2          8.8170   -2.8810    1.1320 o         1 MOL     -0.563085
     11 C5          9.3890   -1.7160    3.8440 c3        1 MOL     -0.324120
     12 C6         10.5640   -0.7390    3.9090 c         1 MOL      0.731896
     13 O3         10.4950    0.3020    3.2030 o         1 MOL     -0.732362
     14 O4         11.4820   -0.9490    4.7650 o         1 MOL     -0.732362
     15 H4          7.0930   -2.8830    3.8470 hn        1 MOL      0.320229
     16 H5          7.9900   -0.2960    2.9700 h1        1 MOL     -0.007679
     17 H6          9.6260   -2.7520    3.5670 hc        1 MOL      0.043662
     18 H7          9.0840   -1.6630    4.8850 hc        1 MOL      0.043662
     19 N2          8.6590   -0.6720    0.5690 n         1 MOL     -0.486509
     20 C7          8.8040   -0.8540   -0.8950 c3        1 MOL      0.278646
     21 C8          7.5290   -1.2470   -1.6750 c         1 MOL      0.304699
     22 O5          7.6330   -1.6290   -2.8360 o         1 MOL     -0.520929
     23 C9          9.5430    0.4140   -1.3910 c3        1 MOL     -0.373508
     24 H8          8.4830    0.2860    0.8230 hn        1 MOL      0.265514
     25 H9          9.4340   -1.7380   -0.9970 h1        1 MOL      0.063623
     26 H10         9.7360    0.2770   -2.4560 hc        1 MOL      0.099521
     27 H11         8.9820    1.3270   -1.2170 hc        1 MOL      0.099521
     28 H12        10.4740    0.5030   -0.8390 hc        1 MOL      0.099521
     29 N3          6.3070   -1.1300   -1.0950 n         1 MOL     -0.268720
     30 C10         5.0610   -1.2720   -1.7710 c3        1 MOL      0.117498
     31 C11         4.8150   -0.3420   -3.0220 c         1 MOL      0.360942
     32 O6          4.0300   -0.7000   -3.8740 o         1 MOL     -0.464694
     33 C12         4.8560   -2.7380   -1.9920 c3        1 MOL      0.059700
     34 C13         3.4160   -3.2730   -1.9170 c         1 MOL      0.540181
     35 O7          3.0310   -4.3070   -2.5420 o         1 MOL     -0.730520
     36 O8          2.5850   -2.7820   -1.1280 o         1 MOL     -0.730520
     37 H13         6.3000   -0.9120   -0.1110 hn        1 MOL      0.175850
     38 H14         4.3910   -0.9960   -0.9550 h1        1 MOL      0.039533
     39 H15         5.4160   -3.3270   -1.2570 hc        1 MOL      0.013871
     40 H16         5.2040   -3.0190   -2.9910 hc        1 MOL      0.013871
     41 N4          5.4530    0.7660   -3.1680 n         1 MOL     -0.121682
     42 C14         5.3020    1.6630   -4.3700 c3        1 MOL     -0.249693
     43 C15         3.9400    2.4010   -4.5060 c         1 MOL      0.463657
     44 O9          3.5950    2.8670   -5.6030 o         1 MOL     -0.559765
     45 H17         6.0970    1.0540   -2.4440 hn        1 MOL      0.171621
     46 H18         5.5480    1.1560   -5.3010 h1        1 MOL      0.123740
     47 H19         6.0860    2.4040   -4.2180 h1        1 MOL      0.123740
     48 N5          3.2610    2.4940   -3.4270 n         1 MOL     -0.184993
     49 C16         1.9120    3.0700   -3.3680 c3        1 MOL      0.017575
     50 C17         1.9350    4.1210   -2.3030 c         1 MOL      0.317459
     51 O10         2.3860    3.8380   -1.1760 o         1 MOL     -0.473725
     52 C18         0.9350    1.9740   -3.1000 c3        1 MOL     -0.093244
     53 C19        -0.5450    2.3950   -3.3950 c         1 MOL      0.633413
     54 N6         -1.3910    2.7130   -2.3780 n         1 MOL     -0.779751
     55 O11        -0.9640    2.3200   -4.5550 o         1 MOL     -0.559511
     56 H20         3.7040    2.1120   -2.6080 hn        1 MOL      0.169185
     57 H21         1.5630    3.6030   -4.2490 h1        1 MOL      0.042290
     58 H22         1.0980    1.6350   -2.0780 hc        1 MOL      0.093518
     59 H23         1.1530    1.1180   -3.7300 hc        1 MOL      0.093518
     60 H24        -1.1410    2.6350   -1.4040 hn        1 MOL      0.344482
     61 H25        -2.2210    3.2170   -2.6520 hn        1 MOL      0.344482
     62 N7          1.4800    5.3010   -2.5530 n         1 MOL     -0.245717
     63 C20         1.2940    6.4840   -1.6980 c3        1 MOL     -0.229690
     64 C21        -0.0290    6.5130   -0.9480 c         1 MOL      0.736945
     65 O12        -1.0130    6.0630   -1.5760 o         1 MOL     -0.535086
     66 H26         1.1480    5.4390   -3.5000 hn        1 MOL      0.275290
     67 H27         1.2490    7.4290   -2.2460 h1        1 MOL      0.104160
     68 H28         2.0910    6.4820   -0.9640 h1        1 MOL      0.104160
     69 N8         -0.0440    7.1820    0.2230 n         1 MOL     -0.639289
     70 C22        -1.2740    7.3350    1.0210 c3        1 MOL     -0.045869
     71 C23        -1.5690    6.1200    1.8690 c         1 MOL      0.420239
     72 O13        -2.7330    5.9560    2.2900 o         1 MOL     -0.557515
     73 C24        -1.3690    8.5400    1.8600 c3        1 MOL      0.506102
     74 C25        -0.4000    8.5440    3.0990 c3        1 MOL     -0.350744
     75 O14        -1.0910    9.6470    0.9910 oh        1 MOL     -0.633172
     76 H29         0.7810    7.3640    0.7800 hn        1 MOL      0.315077
     77 H30        -2.0640    7.4070    0.2900 h1        1 MOL      0.129710
     78 H31        -2.3810    8.5910    2.2610 h1        1 MOL      0.003527
     79 H32        -0.1340    9.5880    0.8880 ho        1 MOL      0.367583
     80 H33         0.5290    8.0450    2.8170 hc        1 MOL      0.080587
     81 H34        -0.2150    9.5760    3.3940 hc        1 MOL      0.080587
     82 H35        -0.9180    8.0240    3.9000 hc        1 MOL      0.080587
     83 N9         -0.7570    5.0650    1.8480 n         1 MOL     -0.271222
     84 C26        -1.1260    3.6580    2.2580 c3        1 MOL      0.033391
     85 C27        -1.0690    2.5870    1.1040 c         1 MOL      0.470722
     86 O15        -0.1620    2.6320    0.2840 o         1 MOL     -0.475845
     87 C28        -0.2240    3.1900    3.4350 c3        1 MOL      0.057197
     88 C29        -0.2470    4.2510    4.5810 c3        1 MOL      0.019711
     89 C30        -0.5770    1.8300    4.0790 c3        1 MOL     -0.162658
     90 C31        -1.5460    4.3390    5.4100 c3        1 MOL     -0.082623
     91 H36         0.1710    5.1890    1.4820 hn        1 MOL      0.225121
     92 H37        -2.1480    3.7190    2.6490 h1        1 MOL      0.104211
     93 H38         0.8040    3.1910    3.0920 hc        1 MOL      0.030841
     94 H39        -0.0130    5.2230    4.1520 hc        1 MOL     -0.010314
     95 H40         0.5650    4.0650    5.2760 hc        1 MOL     -0.010314
     96 H41         0.1270    1.4390    4.8170 hc        1 MOL      0.048256
     97 H42        -1.5930    1.7970    4.4810 hc        1 MOL      0.048256
     98 H43        -0.4230    1.0930    3.2960 hc        1 MOL      0.048256
     99 H44        -2.4030    4.4930    4.7660 hc        1 MOL      0.017092
    100 H45        -1.7070    3.4650    6.0530 hc        1 MOL      0.017092
    101 H46        -1.4530    5.1950    6.0720 hc        1 MOL      0.017092
    102 N10        -1.9540    1.5940    1.1310 n         1 MOL     -0.582713
    103 C32        -1.9170    0.3890    0.2840 c3        1 MOL      0.457599
    104 C33        -3.2670   -0.1150   -0.1800 c         1 MOL      0.436554
    105 O16        -3.4310   -1.2710   -0.5440 o         1 MOL     -0.417177
    106 C34        -1.0850   -0.7370    1.0050 c3        1 MOL     -0.408301
    107 C35        -0.7150   -1.9750    0.2140 c         1 MOL      0.705809
    108 O17        -0.3510   -3.0250    0.8630 o         1 MOL     -0.737149
    109 O18        -0.6200   -1.9740   -1.0420 o         1 MOL     -0.737149
    110 H47        -2.7200    1.6730    1.7940 hn        1 MOL      0.273849
    111 H48        -1.4320    0.5550   -0.6870 h1        1 MOL      0.011701
    112 H49        -1.6390   -1.0570    1.8890 hc        1 MOL      0.115490
    113 H50        -0.1440   -0.2980    1.3400 hc        1 MOL      0.115490
    114 N11        -4.2960    0.7440   -0.2240 n         1 MOL     -0.627296
    115 C36        -5.6600    0.4270   -0.5160 c3        1 MOL      0.538763
    116 C37        -6.3150   -0.6170    0.4200 c         1 MOL      0.228329
    117 O19        -6.2110   -0.4720    1.6480 o         1 MOL     -0.539415
    118 C38        -6.4750    1.7020   -0.6310 c3        1 MOL     -0.312382
    119 C39        -7.9390    1.4540   -1.1400 ca        1 MOL      0.133906
    120 C40        -8.2290    1.6550   -2.5160 ca        1 MOL     -0.180198
    121 C41        -8.9240    1.0000   -0.2500 ca        1 MOL     -0.180198
    122 C42        -9.4610    1.3700   -3.0090 ca        1 MOL     -0.081394
    123 C43       -10.2220    0.7620   -0.6920 ca        1 MOL     -0.081394
    124 C44       -10.5090    0.9690   -2.0760 ca        1 MOL     -0.170592
    125 H51        -4.2190    1.6550    0.2150 hn        1 MOL      0.268469
    126 H52        -5.6440    0.0130   -1.5250 h1        1 MOL     -0.058801
    127 H53        -5.9270    2.3690   -1.3020 hc        1 MOL      0.088557
    128 H54        -6.4450    2.1570    0.3600 hc        1 MOL      0.088557
    129 H55        -7.3830    1.8290   -3.1720 ha        1 MOL      0.127121
    130 H56        -8.6470    0.8610    0.7800 ha        1 MOL      0.127121
    131 H57        -9.7350    1.6450   -4.0140 ha        1 MOL      0.104558
    132 H58       -11.0270    0.3030   -0.1280 ha        1 MOL      0.104558
    133 H59       -11.4340    0.5640   -2.4570 ha        1 MOL      0.112790
    134 N12        -6.9380   -1.6640   -0.1830 n         1 MOL      0.114509
    135 C45        -7.7610   -2.6080    0.6760 c3        1 MOL     -0.077380
    136 C46        -6.9110   -3.5250    1.5440 c         1 MOL      0.468658
    137 O20        -7.3830   -3.9630    2.5520 o         1 MOL     -0.513468
    138 C47        -8.7010   -3.1640   -0.3900 c3        1 MOL     -0.019962
    139 C48        -7.8720   -3.2310   -1.6550 c3        1 MOL      0.062634
    140 C49        -7.0230   -2.0430   -1.6160 c3        1 MOL     -0.169247
    141 H60        -8.4100   -2.0250    1.3250 h1        1 MOL      0.067610
    142 H61        -9.1810   -4.1050   -0.1280 hc        1 MOL      0.016721
    143 H62        -9.5100   -2.4980   -0.6660 hc        1 MOL      0.016721
    144 H63        -7.3260   -4.1710   -1.7120 hc        1 MOL      0.002704
    145 H64        -8.5410   -3.2300   -2.5250 hc        1 MOL      0.002704
    146 H65        -6.0660   -2.3150   -2.0820 h1        1 MOL      0.069219
    147 H66        -7.5090   -1.1910   -2.0920 h1        1 MOL      0.069219
    148 N13        -5.6150   -3.6170    1.2790 n         1 MOL     -0.249346
    149 C50        -4.8190   -4.6460    1.9930 c3        1 MOL     -0.265037
    150 C51        -4.5770   -4.2000    3.4150 c         1 MOL      0.545200
    151 O21        -4.7570   -4.9620    4.3780 o         1 MOL     -0.568728
    152 C52        -3.4800   -4.9930    1.3240 c3        1 MOL      0.192227
    153 C53        -3.6070   -5.5380   -0.0760 c3        1 MOL     -0.154108
    154 C54        -2.1770   -5.4220   -0.6570 c         1 MOL      0.662616
    155 O22        -2.0900   -4.9340   -1.8040 o         1 MOL     -0.735815
    156 O23        -1.1760   -5.8230   -0.0540 o         1 MOL     -0.735815
    157 H67        -5.1310   -3.2200    0.4900 hn        1 MOL      0.233894
    158 H68        -5.4640   -5.5220    1.9470 h1        1 MOL      0.121921
    159 H69        -2.9610   -5.5830    2.0820 hc        1 MOL     -0.010668
    160 H70        -2.9710   -4.0350    1.2930 hc        1 MOL     -0.010668
    161 H71        -4.2590   -4.8050   -0.5320 hc        1 MOL      0.020764
    162 H72        -4.0680   -6.5230   -0.1380 hc        1 MOL      0.020764
    163 N14        -4.2710   -2.9410    3.5580 n         1 MOL     -0.200975
    164 C55        -3.8770   -2.4940    4.9040 c3        1 MOL     -0.270932
    165 H73        -3.6400   -3.3620    5.5190 h1        1 MOL      0.105071
    166 H74        -3.0010   -1.8500    4.8320 h1        1 MOL      0.105071
    167 H75        -4.6990   -1.9410    5.3590 h1        1 MOL      0.105071
    168 H76        -4.2870   -2.3060    2.7790 hn        1 MOL      0.235823
    169 Ca1         0.5540   -4.3110   -1.3540 Ca        1 MOL      1.821499
    170 O24         2.3300   -5.2460    0.3140 oh        1 MOL     -0.836428
    171 H77         2.2150   -5.6230    1.1840 ho        1 MOL      0.409768
    172 H78         3.1730   -4.8120    0.3390 ho        1 MOL      0.409768
    173 O25         0.8000   -6.9030   -2.1000 oh        1 MOL     -0.836428
    174 H79         0.1930   -7.5280   -1.6910 ho        1 MOL      0.409768
    175 H80         1.4810   -7.4520   -2.4930 ho        1 MOL      0.409768
    176 O26         0.1880   -4.1420   -3.9560 oh        1 MOL     -0.836428
    177 H81         0.4950   -4.8500   -4.5080 ho        1 MOL      0.409768
    178 H82        -0.0360   -3.4360   -4.5620 ho        1 MOL      0.409768
@<TRIPOS>BOND
     1    1    2 1   
     2    1    4 1   
     3    1    5 1   
     4    1    6 1   
     5    2    3 2   
     6    2    7 1   
     7    7    8 1   
     8    7   15 1   
     9    8    9 1   
    10    8   11 1   
    11    8   16 1   
    12    9   10 2   
    13    9   19 1   
    14   11   12 1   
    15   11   17 1   
    16   11   18 1   
    17   12   13 1   
    18   12   14 1   
    19   19   20 1   
    20   19   24 1   
    21   20   21 1   
    22   20   23 1   
    23   20   25 1   
    24   21   22 2   
    25   21   29 1   
    26   23   26 1   
    27   23   27 1   
    28   23   28 1   
    29   29   30 1   
    30   29   37 1   
    31   30   31 1   
    32   30   33 1   
    33   30   38 1   
    34   31   32 2   
    35   31   41 1   
    36   33   34 1   
    37   33   39 1   
    38   33   40 1   
    39   34   35 1   
    40   34   36 1   
    41   41   42 1   
    42   41   45 1   
    43   42   43 1   
    44   42   46 1   
    45   42   47 1   
    46   43   44 2   
    47   43   48 1   
    48   48   49 1   
    49   48   56 1   
    50   49   50 1   
    51   49   52 1   
    52   49   57 1   
    53   50   51 2   
    54   50   62 1   
    55   52   53 1   
    56   52   58 1   
    57   52   59 1   
    58   53   54 1   
    59   53   55 2   
    60   54   60 1   
    61   54   61 1   
    62   62   63 1   
    63   62   66 1   
    64   63   64 1   
    65   63   67 1   
    66   63   68 1   
    67   64   65 2   
    68   64   69 1   
    69   69   70 1   
    70   69   76 1   
    71   70   71 1   
    72   70   73 1   
    73   70   77 1   
    74   71   72 2   
    75   71   83 1   
    76   73   74 1   
    77   73   75 1   
    78   73   78 1   
    79   74   80 1   
    80   74   81 1   
    81   74   82 1   
    82   75   79 1   
    83   83   84 1   
    84   83   91 1   
    85   84   85 1   
    86   84   87 1   
    87   84   92 1   
    88   85   86 2   
    89   85  102 1   
    90   87   88 1   
    91   87   89 1   
    92   87   93 1   
    93   88   90 1   
    94   88   94 1   
    95   88   95 1   
    96   89   96 1   
    97   89   97 1   
    98   89   98 1   
    99   90   99 1   
   100   90  100 1   
   101   90  101 1   
   102  102  103 1   
   103  102  110 1   
   104  103  104 1   
   105  103  106 1   
   106  103  111 1   
   107  104  105 2   
   108  104  114 1   
   109  106  107 1   
   110  106  112 1   
   111  106  113 1   
   112  107  108 1   
   113  107  109 1   
   114  114  115 1   
   115  114  125 1   
   116  115  116 1   
   117  115  118 1   
   118  115  126 1   
   119  116  117 2   
   120  116  134 1   
   121  118  119 1   
   122  118  127 1   
   123  118  128 1   
   124  119  120 ar  
   125  119  121 ar  
   126  120  122 ar  
   127  120  129 1   
   128  121  123 ar  
   129  121  130 1   
   130  122  124 ar  
   131  122  131 1   
   132  123  124 ar  
   133  123  132 1   
   134  124  133 1   
   135  134  135 1   
   136  134  140 1   
   137  135  136 1   
   138  135  138 1   
   139  135  141 1   
   140  136  137 2   
   141  136  148 1   
   142  138  139 1   
   143  138  142 1   
   144  138  143 1   
   145  139  140 1   
   146  139  144 1   
   147  139  145 1   
   148  140  146 1   
   149  140  147 1   
   150  148  149 1   
   151  148  157 1   
   152  149  150 1   
   153  149  152 1   
   154  149  158 1   
   155  150  151 2   
   156  150  163 1   
   157  152  153 1   
   158  152  159 1   
   159  152  160 1   
   160  153  154 1   
   161  153  161 1   
   162  153  162 1   
   163  154  155 1   
   164  154  156 1   
   165  163  164 1   
   166  163  168 1   
   167  164  165 1   
   168  164  166 1   
   169  164  167 1   
   170  170  171 1   
   171  170  172 1   
   172  173  174 1   
   173  173  175 1   
   174  176  177 1   
   175  176  178 1   
@<TRIPOS>SUBSTRUCTURE
     1 MOL         1 TEMP              0 ****  ****    0 ROOT
