@<TRIPOS>MOLECULE
MOL
  195   189     1     0     0
SMALL
resp


@<TRIPOS>ATOM
      1 C1          8.6790    0.7670    2.2920 c3        1 MOL     -0.624493
      2 C2          7.7210    0.1410    1.2790 c         1 MOL      0.786110
      3 O1          6.5130   -0.0310    1.5540 o         1 MOL     -0.723949
      4 H1          8.1330    1.0140    3.2020 hc        1 MOL      0.166619
      5 H2          9.4750    0.0600    2.5260 hc        1 MOL      0.166619
      6 H3          9.1120    1.6740    1.8710 hc        1 MOL      0.166619
      7 N1          8.1890   -0.0560    0.0720 n         1 MOL     -0.436876
      8 C3          7.3840   -0.2850   -1.1440 c3        1 MOL      0.011683
      9 C4          6.9340   -1.7150   -1.2290 c         1 MOL      0.439604
     10 O2          7.3000   -2.4730   -2.1940 o         1 MOL     -0.507995
     11 C5          8.2010    0.1720   -2.3540 c3        1 MOL     -0.129269
     12 C6          9.6640   -0.3020   -2.4690 c         1 MOL      0.651994
     13 O3         10.5250   -0.1550   -1.5620 o         1 MOL     -0.619673
     14 O4         10.1110   -0.5670   -3.6400 o         1 MOL     -0.619673
     15 H4          9.1760    0.0540   -0.0820 hn        1 MOL      0.182995
     16 H5          6.4490    0.2930   -1.1630 h1        1 MOL      0.110693
     17 H6          8.2180    1.2630   -2.3640 hc        1 MOL      0.069415
     18 H7          7.6670   -0.1830   -3.2300 hc        1 MOL      0.069415
     19 N2          6.2140   -2.2420   -0.2130 n         1 MOL     -0.193590
     20 C7          5.7420   -3.6360   -0.0780 c3        1 MOL      0.054493
     21 C8          4.2140   -3.8570   -0.3660 c         1 MOL      0.557535
     22 O5          3.9460   -4.8960   -1.0320 o         1 MOL     -0.563288
     23 C9          6.0910   -4.2270    1.3280 c3        1 MOL     -0.025236
     24 C10         7.5930   -4.2430    1.6970 c3        1 MOL     -0.040060
     25 C11         7.9210   -4.9820    3.0230 c3        1 MOL     -0.184778
     26 C12         9.2810   -4.4980    3.6140 c3        1 MOL      0.204926
     27 N3          9.5370   -5.1240    4.9340 n4        1 MOL     -0.372244
     28 H8          6.0970   -1.5760    0.5330 hn        1 MOL      0.196849
     29 H9          6.2720   -4.2620   -0.7950 h1        1 MOL      0.063987
     30 H10         5.6510   -5.2360    1.3250 hc        1 MOL      0.013623
     31 H11         5.5320   -3.7380    2.1230 hc        1 MOL      0.013623
     32 H12         7.9360   -3.2080    1.6550 hc        1 MOL      0.044598
     33 H13         8.1790   -4.6650    0.8870 hc        1 MOL      0.044598
     34 H14         7.9950   -6.0420    2.7720 hc        1 MOL      0.078433
     35 H15         7.2430   -4.7940    3.8490 hc        1 MOL      0.078433
     36 H16         9.3480   -3.4130    3.6500 hx        1 MOL      0.037623
     37 H17        10.0750   -4.8400    2.9400 hx        1 MOL      0.037623
     38 H18         8.9030   -4.7160    5.5930 hn        1 MOL      0.282832
     39 H19         9.4550   -6.1300    4.9430 hn        1 MOL      0.282832
     40 H20        10.5140   -4.9930    5.1820 hn        1 MOL      0.282832
     41 N4          3.2690   -3.0960    0.0900 n         1 MOL     -0.554584
     42 C13         3.4830   -1.9320    0.9710 c3        1 MOL      0.184300
     43 C14         3.6650   -0.5760    0.2740 c         1 MOL      0.129567
     44 O6          3.8830   -0.5610   -0.9300 o         1 MOL     -0.423149
     45 C15         2.2450   -1.8960    1.9200 c3        1 MOL     -0.144332
     46 C16         0.8290   -1.8720    1.3600 c         1 MOL      0.738440
     47 O7          0.4780   -0.9590    0.5900 o         1 MOL     -0.691420
     48 O8         -0.0290   -2.6450    1.8720 o         1 MOL     -0.691420
     49 H21         2.4340   -3.2710   -0.4540 hn        1 MOL      0.362844
     50 H22         4.3610   -2.1100    1.5880 h1        1 MOL      0.097193
     51 H23         2.4080   -0.9990    2.5220 hc        1 MOL      0.013543
     52 H24         2.3490   -2.7610    2.5770 hc        1 MOL      0.013543
     53 N5          3.7300    0.5740    0.9850 n         1 MOL     -0.167260
     54 C17         3.9020    1.9740    0.5850 c3        1 MOL     -0.271042
     55 C18         2.8120    2.5200   -0.2850 c         1 MOL      0.687233
     56 O9          1.6850    2.1030   -0.3280 o         1 MOL     -0.736714
     57 H25         3.6700    0.5050    1.9940 hn        1 MOL      0.264600
     58 H26         4.8550    2.0920    0.0860 h1        1 MOL      0.167817
     59 H27         4.0040    2.4130    1.5860 h1        1 MOL      0.167817
     60 N6          3.0870    3.7270   -0.8130 n         1 MOL     -0.664675
     61 C19         2.1050    4.4930   -1.6110 c3        1 MOL      0.678625
     62 C20         2.5390    5.9730   -1.5120 c         1 MOL      0.232455
     63 O10         3.7380    6.2530   -1.3580 o         1 MOL     -0.477011
     64 C21         1.9970    4.0510   -3.1390 c3        1 MOL      0.064975
     65 C22         3.2800    3.9980   -3.8220 c         1 MOL      0.646916
     66 O11         4.0460    3.0050   -3.6680 o         1 MOL     -0.668441
     67 O12         3.6250    5.0080   -4.4740 o         1 MOL     -0.668441
     68 H28         3.9740    4.1730   -0.6340 hn        1 MOL      0.313530
     69 H29         1.1030    4.4890   -1.1710 h1        1 MOL     -0.090194
     70 H30         1.3180    4.6180   -3.7670 hc        1 MOL     -0.103388
     71 H31         1.6540    3.0090   -3.1670 hc        1 MOL     -0.103388
     72 N7          1.6990    6.9260   -1.6730 n         1 MOL     -0.363606
     73 C23         0.2450    6.8400   -1.9490 c3        1 MOL     -0.097548
     74 C24        -0.5280    6.3790   -0.7150 c         1 MOL      0.508695
     75 O13         0.0980    6.3860    0.3660 o         1 MOL     -0.467218
     76 H32         2.0270    7.8800   -1.7420 hn        1 MOL      0.323894
     77 H33         0.1220    6.2230   -2.8370 h1        1 MOL      0.085348
     78 H34        -0.0320    7.8480   -2.2820 h1        1 MOL      0.085348
     79 N8         -1.7430    5.9050   -0.8320 n         1 MOL     -0.414014
     80 C25        -2.3970    5.2620    0.2710 c3        1 MOL     -0.190535
     81 C26        -1.7940    3.9430    0.7180 c         1 MOL      0.555900
     82 O14        -1.1860    3.1910    0.0080 o         1 MOL     -0.481219
     83 C27        -3.8860    4.9190   -0.1290 c3        1 MOL      0.372041
     84 C28        -4.8340    4.4370    1.0130 c3        1 MOL     -0.227577
     85 O15        -3.9600    3.9700   -1.1860 oh        1 MOL     -0.675422
     86 H35        -2.3120    5.9880   -1.6670 hn        1 MOL      0.249974
     87 H36        -2.2530    5.8040    1.2060 h1        1 MOL      0.118325
     88 H37        -4.3700    5.8260   -0.4930 h1        1 MOL      0.033169
     89 H38        -4.0380    4.4450   -2.0070 ho        1 MOL      0.431440
     90 H39        -5.8110    4.8690    0.8230 hc        1 MOL      0.072055
     91 H40        -4.7720    3.3690    1.2270 hc        1 MOL      0.072055
     92 H41        -4.4860    4.9460    1.9100 hc        1 MOL      0.072055
     93 N9         -2.0440    3.5940    1.9850 n         1 MOL     -0.358665
     94 C29        -1.5390    2.5260    2.7510 c3        1 MOL     -0.027809
     95 C30        -1.9400    1.1370    2.2930 c         1 MOL      0.354395
     96 O16        -1.8280    0.7600    1.1350 o         1 MOL     -0.547919
     97 C31         0.0060    2.6450    3.0990 c3        1 MOL     -0.002826
     98 C32         0.2890    3.8870    3.9730 c3        1 MOL     -0.220390
     99 C33         0.6620    1.4250    3.7470 c3        1 MOL     -0.093874
    100 C34        -0.0580    3.6480    5.4330 c3        1 MOL     -0.127840
    101 H42        -2.6750    4.2860    2.3690 hn        1 MOL      0.254524
    102 H43        -2.0540    2.5380    3.7150 h1        1 MOL      0.076784
    103 H44         0.4980    2.7440    2.1260 hc        1 MOL      0.099893
    104 H45        -0.0010    4.8300    3.5020 hc        1 MOL      0.082867
    105 H46         1.3730    3.9640    3.9510 hc        1 MOL      0.082867
    106 H47         1.7020    1.6010    4.0230 hc        1 MOL      0.041137
    107 H48         0.1150    1.1570    4.6480 hc        1 MOL      0.041137
    108 H49         0.6300    0.6080    3.0370 hc        1 MOL      0.041137
    109 H50         0.0480    4.4920    6.1150 hc        1 MOL      0.048085
    110 H51        -1.1240    3.4960    5.5960 hc        1 MOL      0.048085
    111 H52         0.6090    2.9310    5.9090 hc        1 MOL      0.048085
    112 N10        -2.4520    0.3660    3.2450 n         1 MOL     -0.032627
    113 C35        -2.7500   -1.0630    3.2010 c3        1 MOL     -0.049432
    114 C36        -4.2420   -1.4230    3.1220 c         1 MOL      0.340442
    115 O17        -4.6520   -2.5790    3.0630 o         1 MOL     -0.485507
    116 C37        -2.1590   -1.9360    4.3130 c3        1 MOL      0.413357
    117 C38        -2.6610   -1.5230    5.7010 c3        1 MOL     -0.287338
    118 O18        -0.6980   -1.9730    4.2720 oh        1 MOL     -0.644556
    119 H53        -2.6180    0.7960    4.1390 hn        1 MOL      0.132146
    120 H54        -2.2600   -1.4720    2.3120 h1        1 MOL      0.061636
    121 H55        -2.5520   -2.9360    4.1160 h1        1 MOL      0.011045
    122 H56        -0.5040   -2.3250    3.3970 ho        1 MOL      0.375522
    123 H57        -2.0820   -2.0370    6.4610 hc        1 MOL      0.063917
    124 H58        -2.4700   -0.4890    6.0010 hc        1 MOL      0.063917
    125 H59        -3.7370   -1.6900    5.7810 hc        1 MOL      0.063917
    126 N11        -5.1120   -0.3690    3.0550 n         1 MOL     -0.052189
    127 C39        -6.5360   -0.5950    2.7930 c3        1 MOL     -0.286071
    128 C40        -6.7550   -0.9290    1.2790 c         1 MOL      0.501901
    129 O19        -6.9790   -0.0080    0.4520 o         1 MOL     -0.511701
    130 C41        -7.4750    0.5710    3.2180 c3        1 MOL      0.530018
    131 C42        -7.9550    0.4660    4.6680 c3        1 MOL     -0.295705
    132 O20        -6.8980    1.8040    3.0000 oh        1 MOL     -0.594547
    133 H60        -4.7190    0.5470    3.1730 hn        1 MOL      0.096299
    134 H61        -6.8380   -1.4800    3.3380 h1        1 MOL      0.105515
    135 H62        -8.4090    0.6420    2.6480 h1        1 MOL     -0.031026
    136 H63        -6.7790    1.8760    2.0490 ho        1 MOL      0.323269
    137 H64        -8.7110    1.2360    4.8060 hc        1 MOL      0.070969
    138 H65        -8.4330   -0.5060    4.7640 hc        1 MOL      0.070969
    139 H66        -7.1030    0.6710    5.3130 hc        1 MOL      0.070969
    140 N12        -6.6410   -2.2330    0.9600 n         1 MOL     -0.514069
    141 C43        -6.5010   -2.7450   -0.5090 c3        1 MOL      0.148454
    142 C44        -5.2250   -2.1990   -1.2280 c         1 MOL      0.609394
    143 O21        -4.9770   -1.0080   -1.2080 o         1 MOL     -0.521610
    144 C45        -7.8480   -2.4760   -1.3160 c3        1 MOL     -0.189875
    145 C46        -9.1440   -2.9660   -0.5910 c3        1 MOL      0.126876
    146 C47       -10.3790   -3.2930   -1.4770 c3        1 MOL     -0.109723
    147 C48       -10.6120   -2.3380   -2.6350 c3        1 MOL      0.013731
    148 N13       -11.0400   -0.9340   -2.2630 n4        1 MOL     -0.100191
    149 H67        -6.3050   -2.7930    1.7320 hn        1 MOL      0.307565
    150 H68        -6.4340   -3.8350   -0.6020 h1        1 MOL      0.044451
    151 H69        -7.7410   -2.9700   -2.2790 hc        1 MOL      0.080697
    152 H70        -7.9210   -1.4060   -1.5230 hc        1 MOL      0.080697
    153 H71        -9.4430   -2.1940    0.1180 hc        1 MOL     -0.020935
    154 H72        -8.9460   -3.8830   -0.0360 hc        1 MOL     -0.020935
    155 H73       -11.3530   -3.4260   -1.0020 hc        1 MOL      0.064544
    156 H74       -10.1840   -4.2930   -1.8810 hc        1 MOL      0.064544
    157 H75       -11.4730   -2.6770   -3.2110 hx        1 MOL      0.065818
    158 H76        -9.7560   -2.4270   -3.2950 hx        1 MOL      0.065818
    159 H77       -11.6580   -0.4480   -2.8980 hn        1 MOL      0.173443
    160 H78       -11.4570   -0.8480   -1.3530 hn        1 MOL      0.173443
    161 H79       -10.2500   -0.3050   -2.2300 hn        1 MOL      0.173443
    162 N14        -4.4810   -3.1060   -1.9180 n         1 MOL     -0.762660
    163 C49        -3.2130   -2.7980   -2.5270 c3        1 MOL      0.561479
    164 C50        -2.2090   -2.4710   -1.4370 c         1 MOL      0.347391
    165 O22        -1.5270   -1.4700   -1.6100 o         1 MOL     -0.603978
    166 C51        -2.8100   -3.9340   -3.4570 c3        1 MOL     -0.056395
    167 C52        -3.5290   -3.9150   -4.8360 c3        1 MOL     -0.328141
    168 C53        -3.0990   -5.0180   -5.7750 c         1 MOL      0.748922
    169 O23        -2.1410   -4.9120   -6.5610 o         1 MOL     -0.667759
    170 O24        -3.8590   -6.0370   -5.8420 o         1 MOL     -0.667759
    171 H80        -4.6380   -4.0920   -1.7600 hn        1 MOL      0.353692
    172 H81        -3.3280   -1.8610   -3.0810 h1        1 MOL     -0.005219
    173 H82        -2.9590   -4.8960   -2.9730 hc        1 MOL      0.033108
    174 H83        -1.7240   -3.9050   -3.5500 hc        1 MOL      0.033108
    175 H84        -3.1350   -3.0000   -5.2590 hc        1 MOL      0.058786
    176 H85        -4.5890   -3.9380   -4.6100 hc        1 MOL      0.058786
    177 N15        -2.0470   -3.1880   -0.3140 n         1 MOL     -0.375816
    178 C54        -2.4770   -4.6630   -0.1620 c3        1 MOL     -0.026629
    179 H86        -1.7140   -5.3090   -0.5940 h1        1 MOL      0.046270
    180 H87        -2.5980   -4.9000    0.8950 h1        1 MOL      0.046270
    181 H88        -3.4230   -4.8210   -0.6790 h1        1 MOL      0.046270
    182 H89        -1.4150   -2.7590    0.3500 hn        1 MOL      0.376270
    183 Ca1        -0.4960    0.8410   -1.1320 Ca        1 MOL      1.789542
    184 O25         1.5500   -0.3660   -2.2460 oh        1 MOL     -0.841263
    185 H90         2.2740   -0.3890   -1.6260 ho        1 MOL      0.419071
    186 H91         1.9760   -0.1950   -3.0960 ho        1 MOL      0.419071
    187 O26        -0.9490    2.7140   -3.0020 oh        1 MOL     -0.841263
    188 H92        -1.3230    2.6970   -3.8840 ho        1 MOL      0.419071
    189 H93        -0.9350    3.6440   -2.7660 ho        1 MOL      0.419071
    190 O27        -3.2260    1.3620   -1.0990 oh        1 MOL     -0.841263
    191 H94        -3.4530    2.2900   -1.1550 ho        1 MOL      0.419071
    192 H95        -3.9600    0.9480   -0.6500 ho        1 MOL      0.419071
    193 O28        -0.8040    0.0150   -4.2810 oh        1 MOL     -0.841263
    194 H96        -0.2420   -0.7400   -4.4510 ho        1 MOL      0.419071
    195 H97        -0.5200    0.6670   -4.9190 ho        1 MOL      0.419071
@<TRIPOS>BOND
     1    1    2 1   
     2    1    4 1   
     3    1    5 1   
     4    1    6 1   
     5    2    3 2   
     6    2    7 1   
     7    7    8 1   
     8    7   15 1   
     9    8    9 1   
    10    8   11 1   
    11    8   16 1   
    12    9   10 2   
    13    9   19 1   
    14   11   12 1   
    15   11   17 1   
    16   11   18 1   
    17   12   13 1   
    18   12   14 1   
    19   19   20 1   
    20   19   28 1   
    21   20   21 1   
    22   20   23 1   
    23   20   29 1   
    24   21   22 2   
    25   21   41 1   
    26   23   24 1   
    27   23   30 1   
    28   23   31 1   
    29   24   25 1   
    30   24   32 1   
    31   24   33 1   
    32   25   26 1   
    33   25   34 1   
    34   25   35 1   
    35   26   27 1   
    36   26   36 1   
    37   26   37 1   
    38   27   38 1   
    39   27   39 1   
    40   27   40 1   
    41   41   42 1   
    42   41   49 1   
    43   42   43 1   
    44   42   45 1   
    45   42   50 1   
    46   43   44 2   
    47   43   53 1   
    48   45   46 1   
    49   45   51 1   
    50   45   52 1   
    51   46   47 1   
    52   46   48 1   
    53   53   54 1   
    54   53   57 1   
    55   54   55 1   
    56   54   58 1   
    57   54   59 1   
    58   55   56 2   
    59   55   60 1   
    60   60   61 1   
    61   60   68 1   
    62   61   62 1   
    63   61   64 1   
    64   61   69 1   
    65   62   63 2   
    66   62   72 1   
    67   64   65 1   
    68   64   70 1   
    69   64   71 1   
    70   65   66 1   
    71   65   67 1   
    72   72   73 1   
    73   72   76 1   
    74   73   74 1   
    75   73   77 1   
    76   73   78 1   
    77   74   75 2   
    78   74   79 1   
    79   79   80 1   
    80   79   86 1   
    81   80   81 1   
    82   80   83 1   
    83   80   87 1   
    84   81   82 2   
    85   81   93 1   
    86   83   84 1   
    87   83   85 1   
    88   83   88 1   
    89   84   90 1   
    90   84   91 1   
    91   84   92 1   
    92   85   89 1   
    93   93   94 1   
    94   93  101 1   
    95   94   95 1   
    96   94   97 1   
    97   94  102 1   
    98   95   96 2   
    99   95  112 1   
   100   97   98 1   
   101   97   99 1   
   102   97  103 1   
   103   98  100 1   
   104   98  104 1   
   105   98  105 1   
   106   99  106 1   
   107   99  107 1   
   108   99  108 1   
   109  100  109 1   
   110  100  110 1   
   111  100  111 1   
   112  112  113 1   
   113  112  119 1   
   114  113  114 1   
   115  113  116 1   
   116  113  120 1   
   117  114  115 2   
   118  114  126 1   
   119  116  117 1   
   120  116  118 1   
   121  116  121 1   
   122  117  123 1   
   123  117  124 1   
   124  117  125 1   
   125  118  122 1   
   126  126  127 1   
   127  126  133 1   
   128  127  128 1   
   129  127  130 1   
   130  127  134 1   
   131  128  129 2   
   132  128  140 1   
   133  130  131 1   
   134  130  132 1   
   135  130  135 1   
   136  131  137 1   
   137  131  138 1   
   138  131  139 1   
   139  132  136 1   
   140  140  141 1   
   141  140  149 1   
   142  141  142 1   
   143  141  144 1   
   144  141  150 1   
   145  142  143 2   
   146  142  162 1   
   147  144  145 1   
   148  144  151 1   
   149  144  152 1   
   150  145  146 1   
   151  145  153 1   
   152  145  154 1   
   153  146  147 1   
   154  146  155 1   
   155  146  156 1   
   156  147  148 1   
   157  147  157 1   
   158  147  158 1   
   159  148  159 1   
   160  148  160 1   
   161  148  161 1   
   162  162  163 1   
   163  162  171 1   
   164  163  164 1   
   165  163  166 1   
   166  163  172 1   
   167  164  165 2   
   168  164  177 1   
   169  166  167 1   
   170  166  173 1   
   171  166  174 1   
   172  167  168 1   
   173  167  175 1   
   174  167  176 1   
   175  168  169 1   
   176  168  170 1   
   177  177  178 1   
   178  177  182 1   
   179  178  179 1   
   180  178  180 1   
   181  178  181 1   
   182  184  185 1   
   183  184  186 1   
   184  187  188 1   
   185  187  189 1   
   186  190  191 1   
   187  190  192 1   
   188  193  194 1   
   189  193  195 1   
@<TRIPOS>SUBSTRUCTURE
     1 MOL         1 TEMP              0 ****  ****    0 ROOT
