@<TRIPOS>MOLECULE
MOL
  178   175     1     0     0
SMALL
resp


@<TRIPOS>ATOM
      1 C1          4.5980   -1.5790    2.7570 c3        1 MOL     -0.311071
      2 C2          5.9800   -0.9140    2.5030 c         1 MOL      0.544852
      3 O1          6.0910    0.2510    2.1550 o         1 MOL     -0.558848
      4 H1          4.7320   -2.4800    3.3560 hc        1 MOL      0.081688
      5 H2          3.9510   -0.8820    3.2900 hc        1 MOL      0.081688
      6 H3          4.1400   -1.8430    1.8030 hc        1 MOL      0.081688
      7 N1          7.0280   -1.7350    2.5720 n         1 MOL     -0.389228
      8 C3          8.4370   -1.2870    2.4900 c3        1 MOL      0.022142
      9 C4          8.9350   -1.1970    1.0730 c         1 MOL      0.628712
     10 O2          8.9570   -2.2360    0.3820 o         1 MOL     -0.545553
     11 C5          9.3950   -2.1580    3.3840 c3        1 MOL     -0.384618
     12 C6         10.7960   -1.7620    3.1100 c         1 MOL      0.833195
     13 O3         11.1080   -0.5140    3.0640 o         1 MOL     -0.751895
     14 O4         11.7120   -2.6020    3.0390 o         1 MOL     -0.751895
     15 H4          6.8460   -2.7120    2.7780 hn        1 MOL      0.286768
     16 H5          8.4440   -0.2720    2.8900 h1        1 MOL      0.064906
     17 H6          9.3310   -3.2180    3.1160 hc        1 MOL      0.074629
     18 H7          9.2430   -2.0110    4.4530 hc        1 MOL      0.074629
     19 N2          9.0610    0.0250    0.5660 n         1 MOL     -0.663382
     20 C7          9.0520    0.2150   -0.8530 c3        1 MOL      0.474721
     21 C8          7.7350   -0.0710   -1.5370 c         1 MOL      0.152528
     22 O5          7.7830   -0.3070   -2.7570 o         1 MOL     -0.521574
     23 C9          9.5230    1.6310   -1.1220 c3        1 MOL     -0.293385
     24 H8          8.9690    0.8310    1.1770 hn        1 MOL      0.317174
     25 H9          9.7830   -0.4480   -1.3240 h1        1 MOL      0.038506
     26 H10         9.7190    1.6980   -2.1990 hc        1 MOL      0.062847
     27 H11         8.8640    2.4280   -0.7990 hc        1 MOL      0.062847
     28 H12        10.5010    1.8490   -0.6950 hc        1 MOL      0.062847
     29 N3          6.6400   -0.2540   -0.8250 n         1 MOL     -0.059618
     30 C10         5.3700   -0.8530   -1.3310 c3        1 MOL      0.108869
     31 C11         4.9020   -0.2570   -2.7260 c         1 MOL      0.500708
     32 O6          4.4650   -0.9850   -3.6120 o         1 MOL     -0.501969
     33 C12         5.4510   -2.4450   -1.2620 c3        1 MOL     -0.096964
     34 C13         4.0740   -3.0190   -1.4230 c         1 MOL      0.725995
     35 O7          3.9260   -4.2350   -1.7030 o         1 MOL     -0.766775
     36 O8          3.0230   -2.3470   -1.2750 o         1 MOL     -0.766775
     37 H13         6.5210    0.1640    0.0800 hn        1 MOL      0.138143
     38 H14         4.6150   -0.5180   -0.6300 h1        1 MOL      0.008555
     39 H15         5.8440   -2.8350   -0.3220 hc        1 MOL      0.029452
     40 H16         6.0140   -2.8800   -2.0800 hc        1 MOL      0.029452
     41 N4          5.0060    1.0660   -2.8360 n         1 MOL     -0.242047
     42 C14         4.7290    1.7560   -4.0900 c3        1 MOL     -0.093081
     43 C15         3.4810    2.6940   -4.1790 c         1 MOL      0.552296
     44 O9          3.4990    3.5180   -5.0680 o         1 MOL     -0.578334
     45 H17         5.2690    1.5770   -2.0110 hn        1 MOL      0.178068
     46 H18         4.6350    0.9850   -4.8530 h1        1 MOL      0.078642
     47 H19         5.6240    2.2870   -4.4000 h1        1 MOL      0.078642
     48 N5          2.5560    2.5770   -3.2450 n         1 MOL     -0.339302
     49 C16         1.2850    3.2810   -3.2800 c3        1 MOL     -0.016921
     50 C17         1.4170    4.5730   -2.3610 c         1 MOL      0.544001
     51 O10         2.1610    4.5180   -1.3870 o         1 MOL     -0.525868
     52 C18         0.2110    2.3450   -2.8440 c3        1 MOL     -0.072486
     53 C19        -1.1700    2.9230   -3.0510 c         1 MOL      0.486815
     54 N6         -1.8390    3.3240   -1.9980 n         1 MOL     -0.671831
     55 O11        -1.6570    2.9390   -4.1910 o         1 MOL     -0.564311
     56 H20         2.7390    1.8070   -2.6140 hn        1 MOL      0.198936
     57 H21         0.9510    3.7730   -4.1940 h1        1 MOL      0.045789
     58 H22         0.4670    2.1400   -1.8000 hc        1 MOL      0.108685
     59 H23         0.2840    1.3900   -3.3630 hc        1 MOL      0.108685
     60 H24        -1.4210    3.2750   -1.0840 hn        1 MOL      0.333931
     61 H25        -2.7360    3.7770   -2.1680 hn        1 MOL      0.333931
     62 N7          0.6550    5.6430   -2.6460 n         1 MOL     -0.403905
     63 C20         0.4150    6.8000   -1.7620 c3        1 MOL     -0.082364
     64 C21        -0.7950    6.6310   -0.9220 c         1 MOL      0.698491
     65 O12        -1.8540    6.3460   -1.4030 o         1 MOL     -0.546882
     66 H26         0.0740    5.5100   -3.4530 hn        1 MOL      0.290803
     67 H27         0.4200    7.7390   -2.3220 h1        1 MOL      0.074170
     68 H28         1.2350    6.7970   -1.0480 h1        1 MOL      0.074170
     69 N8         -0.7190    6.9720    0.3610 n         1 MOL     -0.614527
     70 C22        -1.9010    7.0300    1.2710 c3        1 MOL     -0.025843
     71 C23        -2.2740    5.7470    2.1140 c         1 MOL      0.552382
     72 O13        -3.3590    5.6010    2.6620 o         1 MOL     -0.570665
     73 C24        -1.9290    8.3160    2.1030 c3        1 MOL      0.499969
     74 C25        -0.9330    8.3610    3.2660 c3        1 MOL     -0.400215
     75 O14        -1.6510    9.4150    1.2550 oh        1 MOL     -0.643709
     76 H29         0.1770    7.2210    0.7660 hn        1 MOL      0.307421
     77 H30        -2.7600    7.1520    0.6140 h1        1 MOL      0.111754
     78 H31        -2.9400    8.3290    2.5170 h1        1 MOL     -0.001543
     79 H32        -0.6980    9.4400    1.1840 ho        1 MOL      0.376537
     80 H33        -0.1460    9.1130    3.2750 hc        1 MOL      0.092492
     81 H34        -1.5180    8.3620    4.1880 hc        1 MOL      0.092492
     82 H35        -0.3200    7.4630    3.3380 hc        1 MOL      0.092492
     83 N9         -1.3990    4.7500    2.0100 n         1 MOL     -0.541152
     84 C26        -1.6580    3.4250    2.4490 c3        1 MOL      0.207992
     85 C27        -1.4310    2.4190    1.2770 c         1 MOL      0.534067
     86 O15        -0.6480    2.8310    0.3860 o         1 MOL     -0.529659
     87 C28        -0.7800    3.0800    3.7710 c3        1 MOL      0.013385
     88 C29        -0.8120    4.0630    4.9730 c3        1 MOL     -0.044254
     89 C30        -1.2350    1.6620    4.1120 c3        1 MOL     -0.008167
     90 C31        -2.1440    4.2390    5.6780 c3        1 MOL     -0.025922
     91 H36        -0.6100    4.9430    1.3940 hn        1 MOL      0.279228
     92 H37        -2.6920    3.2790    2.7590 h1        1 MOL      0.061656
     93 H38         0.2560    3.0740    3.4390 hc        1 MOL      0.014529
     94 H39        -0.4580    5.0850    4.8530 hc        1 MOL      0.026299
     95 H40        -0.1270    3.6810    5.7280 hc        1 MOL      0.026299
     96 H41        -2.3120    1.5770    4.2690 hc        1 MOL     -0.002653
     97 H42        -0.8510    0.9080    3.4110 hc        1 MOL     -0.002653
     98 H43        -0.7480    1.4220    5.0580 hc        1 MOL     -0.002653
     99 H44        -2.0820    4.9480    6.4980 hc        1 MOL      0.002347
    100 H45        -2.8670    4.4870    4.9050 hc        1 MOL      0.002347
    101 H46        -2.4980    3.2720    6.0420 hc        1 MOL      0.002347
    102 N10        -2.1460    1.3210    1.3010 n         1 MOL     -0.601853
    103 C32        -1.9300    0.2570    0.3880 c3        1 MOL      0.742653
    104 C33        -3.1640   -0.2170   -0.3270 c         1 MOL      0.285829
    105 O16        -3.3220   -1.3890   -0.6270 o         1 MOL     -0.418952
    106 C34        -1.1740   -0.8830    1.1340 c3        1 MOL     -0.281485
    107 C35        -0.6060   -2.0470    0.3560 c         1 MOL      0.633881
    108 O17        -0.2020   -3.0530    0.9670 o         1 MOL     -0.697732
    109 O18        -0.3180   -2.0020   -0.8850 o         1 MOL     -0.697732
    110 H47        -2.9020    1.2610    1.9770 hn        1 MOL      0.276164
    111 H48        -1.2060    0.6060   -0.3550 h1        1 MOL     -0.145328
    112 H49        -1.8230   -1.1910    1.9500 hc        1 MOL      0.062105
    113 H50        -0.3400   -0.3610    1.5890 hc        1 MOL      0.062105
    114 N11        -4.1690    0.5920   -0.5110 n         1 MOL     -0.429311
    115 C36        -5.5520    0.1650   -0.8690 c3        1 MOL      0.343268
    116 C37        -6.0070   -1.0320   -0.0570 c         1 MOL      0.061554
    117 O19        -6.0420   -0.9770    1.1750 o         1 MOL     -0.490973
    118 C38        -6.4930    1.3840   -0.6090 c3        1 MOL     -0.258704
    119 C39        -7.8850    1.0370   -1.0740 ca        1 MOL      0.068285
    120 C40        -8.2130    0.9470   -2.4180 ca        1 MOL     -0.140408
    121 C41        -8.7810    0.5410   -0.0850 ca        1 MOL     -0.140408
    122 C42        -9.5180    0.5410   -2.7820 ca        1 MOL     -0.128569
    123 C43       -10.0120   -0.0840   -0.4840 ca        1 MOL     -0.128569
    124 C44       -10.3220   -0.0870   -1.8530 ca        1 MOL     -0.112294
    125 H51        -4.0670    1.5330   -0.1570 hn        1 MOL      0.194771
    126 H52        -5.6170   -0.0720   -1.9220 h1        1 MOL     -0.014349
    127 H53        -6.1040    2.2940   -1.0520 hc        1 MOL      0.105852
    128 H54        -6.5110    1.4540    0.4800 hc        1 MOL      0.105852
    129 H55        -7.5550    1.3080   -3.1840 ha        1 MOL      0.122818
    130 H56        -8.4990    0.4680    0.9520 ha        1 MOL      0.122818
    131 H57        -9.8740    0.4280   -3.7970 ha        1 MOL      0.113134
    132 H58       -10.6910   -0.5520    0.2150 ha        1 MOL      0.113134
    133 H59       -11.1220   -0.6980   -2.2450 ha        1 MOL      0.101998
    134 N12        -6.6150   -2.0150   -0.6810 n         1 MOL      0.351474
    135 C45        -7.4100   -2.9640    0.0350 c3        1 MOL     -0.124603
    136 C46        -6.7070   -3.9690    0.9710 c         1 MOL      0.240168
    137 O20        -7.3860   -4.5240    1.8220 o         1 MOL     -0.466997
    138 C47        -8.1740   -3.8360   -1.0340 c3        1 MOL     -0.054233
    139 C48        -7.2430   -3.7040   -2.2240 c3        1 MOL     -0.070905
    140 C49        -6.5810   -2.2910   -2.0990 c3        1 MOL     -0.179003
    141 H60        -8.1110   -2.4220    0.6670 h1        1 MOL      0.100770
    142 H61        -8.2610   -4.9150   -0.8960 hc        1 MOL      0.050410
    143 H62        -9.1740   -3.4270   -1.1520 hc        1 MOL      0.050410
    144 H63        -6.3770   -4.3530   -2.0920 hc        1 MOL      0.034733
    145 H64        -7.7990   -3.7430   -3.1560 hc        1 MOL      0.034733
    146 H65        -5.5930   -2.2470   -2.5510 h1        1 MOL      0.072929
    147 H66        -7.2580   -1.6000   -2.6100 h1        1 MOL      0.072929
    148 N13        -5.4070   -4.2000    0.6930 n         1 MOL     -0.093522
    149 C50        -4.6190   -5.0590    1.4590 c3        1 MOL     -0.111894
    150 C51        -4.5540   -4.5970    2.9040 c         1 MOL      0.459558
    151 O21        -4.6160   -5.4590    3.7840 o         1 MOL     -0.554153
    152 C52        -3.1440   -4.9640    0.9390 c3        1 MOL      0.321209
    153 C53        -2.9200   -5.8730   -0.2560 c3        1 MOL     -0.227831
    154 C54        -1.4190   -5.6730   -0.7510 c         1 MOL      0.732157
    155 O22        -0.4850   -6.1230   -0.1110 o         1 MOL     -0.763909
    156 O23        -1.2210   -5.0010   -1.7670 o         1 MOL     -0.763909
    157 H67        -5.0130   -3.8560   -0.1630 hn        1 MOL      0.238848
    158 H68        -4.9650   -6.0900    1.4080 h1        1 MOL      0.074747
    159 H69        -2.4790   -5.2810    1.7420 hc        1 MOL     -0.076303
    160 H70        -2.9420   -3.9240    0.7050 hc        1 MOL     -0.076303
    161 H71        -3.6770   -5.6270   -1.0060 hc        1 MOL      0.014029
    162 H72        -2.9910   -6.8940    0.1170 hc        1 MOL      0.014029
    163 N14        -4.5630   -3.3110    3.2370 n         1 MOL     -0.164196
    164 C55        -4.4310   -2.7730    4.6090 c3        1 MOL     -0.377653
    165 H73        -4.4430   -1.6840    4.5740 h1        1 MOL      0.137136
    166 H74        -5.2620   -3.1250    5.2190 h1        1 MOL      0.137136
    167 H75        -3.4910   -3.1120    5.0440 h1        1 MOL      0.137136
    168 H76        -4.5410   -2.6750    2.4590 hn        1 MOL      0.206972
    169 Ca1         1.2230   -4.2990   -0.9140 Ca        1 MOL      1.721598
    170 O24         2.4050   -4.8560    1.3260 oh        1 MOL     -0.766009
    171 H77         2.9820   -5.6210    1.3740 ho        1 MOL      0.385940
    172 H78         1.9920   -4.8220    2.1860 ho        1 MOL      0.385940
    173 O25         1.1490   -3.4950   -3.5330 oh        1 MOL     -0.766009
    174 H79         1.4140   -2.5970   -3.7330 ho        1 MOL      0.385940
    175 H80         0.9210   -3.8710   -4.3860 ho        1 MOL      0.385940
    176 O26         1.7600   -6.7830   -1.8150 oh        1 MOL     -0.766009
    177 H81         1.4450   -7.3460   -2.5280 ho        1 MOL      0.385940
    178 H82         1.5930   -7.2970   -1.0230 ho        1 MOL      0.385940
@<TRIPOS>BOND
     1    1    2 1   
     2    1    4 1   
     3    1    5 1   
     4    1    6 1   
     5    2    3 2   
     6    2    7 1   
     7    7    8 1   
     8    7   15 1   
     9    8    9 1   
    10    8   11 1   
    11    8   16 1   
    12    9   10 2   
    13    9   19 1   
    14   11   12 1   
    15   11   17 1   
    16   11   18 1   
    17   12   13 1   
    18   12   14 1   
    19   19   20 1   
    20   19   24 1   
    21   20   21 1   
    22   20   23 1   
    23   20   25 1   
    24   21   22 2   
    25   21   29 1   
    26   23   26 1   
    27   23   27 1   
    28   23   28 1   
    29   29   30 1   
    30   29   37 1   
    31   30   31 1   
    32   30   33 1   
    33   30   38 1   
    34   31   32 2   
    35   31   41 1   
    36   33   34 1   
    37   33   39 1   
    38   33   40 1   
    39   34   35 1   
    40   34   36 1   
    41   41   42 1   
    42   41   45 1   
    43   42   43 1   
    44   42   46 1   
    45   42   47 1   
    46   43   44 2   
    47   43   48 1   
    48   48   49 1   
    49   48   56 1   
    50   49   50 1   
    51   49   52 1   
    52   49   57 1   
    53   50   51 2   
    54   50   62 1   
    55   52   53 1   
    56   52   58 1   
    57   52   59 1   
    58   53   54 1   
    59   53   55 2   
    60   54   60 1   
    61   54   61 1   
    62   62   63 1   
    63   62   66 1   
    64   63   64 1   
    65   63   67 1   
    66   63   68 1   
    67   64   65 2   
    68   64   69 1   
    69   69   70 1   
    70   69   76 1   
    71   70   71 1   
    72   70   73 1   
    73   70   77 1   
    74   71   72 2   
    75   71   83 1   
    76   73   74 1   
    77   73   75 1   
    78   73   78 1   
    79   74   80 1   
    80   74   81 1   
    81   74   82 1   
    82   75   79 1   
    83   83   84 1   
    84   83   91 1   
    85   84   85 1   
    86   84   87 1   
    87   84   92 1   
    88   85   86 2   
    89   85  102 1   
    90   87   88 1   
    91   87   89 1   
    92   87   93 1   
    93   88   90 1   
    94   88   94 1   
    95   88   95 1   
    96   89   96 1   
    97   89   97 1   
    98   89   98 1   
    99   90   99 1   
   100   90  100 1   
   101   90  101 1   
   102  102  103 1   
   103  102  110 1   
   104  103  104 1   
   105  103  106 1   
   106  103  111 1   
   107  104  105 2   
   108  104  114 1   
   109  106  107 1   
   110  106  112 1   
   111  106  113 1   
   112  107  108 1   
   113  107  109 1   
   114  114  115 1   
   115  114  125 1   
   116  115  116 1   
   117  115  118 1   
   118  115  126 1   
   119  116  117 2   
   120  116  134 1   
   121  118  119 1   
   122  118  127 1   
   123  118  128 1   
   124  119  120 ar  
   125  119  121 ar  
   126  120  122 ar  
   127  120  129 1   
   128  121  123 ar  
   129  121  130 1   
   130  122  124 ar  
   131  122  131 1   
   132  123  124 ar  
   133  123  132 1   
   134  124  133 1   
   135  134  135 1   
   136  134  140 1   
   137  135  136 1   
   138  135  138 1   
   139  135  141 1   
   140  136  137 2   
   141  136  148 1   
   142  138  139 1   
   143  138  142 1   
   144  138  143 1   
   145  139  140 1   
   146  139  144 1   
   147  139  145 1   
   148  140  146 1   
   149  140  147 1   
   150  148  149 1   
   151  148  157 1   
   152  149  150 1   
   153  149  152 1   
   154  149  158 1   
   155  150  151 2   
   156  150  163 1   
   157  152  153 1   
   158  152  159 1   
   159  152  160 1   
   160  153  154 1   
   161  153  161 1   
   162  153  162 1   
   163  154  155 1   
   164  154  156 1   
   165  163  164 1   
   166  163  168 1   
   167  164  165 1   
   168  164  166 1   
   169  164  167 1   
   170  170  171 1   
   171  170  172 1   
   172  173  174 1   
   173  173  175 1   
   174  176  177 1   
   175  176  178 1   
@<TRIPOS>SUBSTRUCTURE
     1 MOL         1 TEMP              0 ****  ****    0 ROOT
