@<TRIPOS>MOLECULE
MOL
  181   177     1     0     0
SMALL
resp


@<TRIPOS>ATOM
      1 C1          4.2920   -1.5240    4.3080 c3        1 MOL     -0.396074
      2 C2          5.2880   -0.5500    3.6750 c         1 MOL      0.629744
      3 O1          4.8870    0.6440    3.5630 o         1 MOL     -0.580856
      4 H1          3.3440   -1.4720    3.7730 hc        1 MOL      0.102226
      5 H2          4.6860   -2.5380    4.2480 hc        1 MOL      0.102226
      6 H3          4.1330   -1.2550    5.3520 hc        1 MOL      0.102226
      7 N1          6.4160   -1.0010    3.0750 n         1 MOL     -0.433189
      8 C3          7.5250   -0.2070    2.5840 c3        1 MOL      0.136827
      9 C4          7.5520   -0.3880    1.0770 c         1 MOL      0.734790
     10 O2          7.6330   -1.5070    0.4820 o         1 MOL     -0.637244
     11 C5          8.7570   -0.7280    3.2790 c3        1 MOL     -0.036216
     12 C6          9.9150    0.2540    3.3120 c         1 MOL      0.677847
     13 O3         10.1160    1.0210    2.3380 o         1 MOL     -0.725328
     14 O4         10.6690    0.2860    4.3360 o         1 MOL     -0.725328
     15 H4          6.5250   -1.9880    2.9100 hn        1 MOL      0.229971
     16 H5          7.2880    0.8330    2.8270 h1        1 MOL      0.041930
     17 H6          9.0360   -1.6950    2.8590 hc        1 MOL     -0.039985
     18 H7          8.4920   -0.8940    4.3290 hc        1 MOL     -0.039985
     19 N2          7.7540    0.6570    0.2790 n         1 MOL     -0.737367
     20 C7          7.6360    0.5920   -1.1900 c3        1 MOL      0.550804
     21 C8          6.2320    0.8560   -1.7260 c         1 MOL      0.490961
     22 O5          5.3820    1.5350   -1.1510 o         1 MOL     -0.587135
     23 C9          8.6360    1.4760   -1.9220 c3        1 MOL     -0.422120
     24 H8          7.9570    1.5650    0.6760 hn        1 MOL      0.329032
     25 H9          7.8090   -0.4560   -1.4420 h1        1 MOL     -0.005287
     26 H10         8.9270    1.1210   -2.9200 hc        1 MOL      0.095807
     27 H11         8.3240    2.4930   -2.1450 hc        1 MOL      0.095807
     28 H12         9.5760    1.4060   -1.3650 hc        1 MOL      0.095807
     29 N3          5.9060    0.1450   -2.7880 n         1 MOL     -0.435008
     30 C10         4.6030    0.2120   -3.4400 c3        1 MOL     -0.011797
     31 C11         4.4600    1.5730   -4.2500 c         1 MOL      0.707864
     32 O6          5.4310    2.1670   -4.7180 o         1 MOL     -0.560800
     33 C12         4.3250   -1.0040   -4.3830 c3        1 MOL     -0.448382
     34 C13         4.3200   -2.3950   -3.6580 c         1 MOL      0.866183
     35 O7          3.2210   -2.8070   -3.2120 o         1 MOL     -0.734831
     36 O8          5.3740   -3.0280   -3.4430 o         1 MOL     -0.734831
     37 H13         6.5870   -0.4970   -3.1570 hn        1 MOL      0.264391
     38 H14         3.9010    0.2110   -2.6090 h1        1 MOL      0.076379
     39 H15         5.1540   -0.9940   -5.0990 hc        1 MOL      0.095604
     40 H16         3.3810   -0.7530   -4.8670 hc        1 MOL      0.095604
     41 N4          3.2290    2.0580   -4.3420 n         1 MOL     -0.519366
     42 C14         2.9200    3.3840   -5.0340 c3        1 MOL     -0.012306
     43 C15         1.7580    4.2630   -4.4960 c         1 MOL      0.541000
     44 O9          1.8270    5.4850   -4.6680 o         1 MOL     -0.527682
     45 H17         2.4200    1.6820   -3.8680 hn        1 MOL      0.300012
     46 H18         2.5570    3.1600   -6.0290 h1        1 MOL      0.075760
     47 H19         3.7900    4.0410   -5.1010 h1        1 MOL      0.075760
     48 N5          0.7030    3.6920   -3.9220 n         1 MOL     -0.537626
     49 C16        -0.6150    4.3590   -3.8390 c3        1 MOL      0.212131
     50 C17        -0.7500    5.4240   -2.7250 c         1 MOL      0.412917
     51 O10        -1.4240    6.4520   -2.8850 o         1 MOL     -0.502427
     52 C18        -1.7000    3.2680   -3.5690 c3        1 MOL     -0.265034
     53 C19        -3.1010    3.7280   -4.0370 c         1 MOL      0.688434
     54 N6         -4.1720    3.4570   -3.4430 n         1 MOL     -0.719520
     55 O11        -3.1360    4.1890   -5.1400 o         1 MOL     -0.591711
     56 H20         0.7300    2.7130   -3.6920 hn        1 MOL      0.310322
     57 H21        -0.8130    4.9050   -4.7690 h1        1 MOL      0.071720
     58 H22        -1.7130    3.1230   -2.4880 hc        1 MOL      0.070857
     59 H23        -1.4560    2.3780   -4.1380 hc        1 MOL      0.070857
     60 H24        -4.1830    3.0190   -2.5350 hn        1 MOL      0.348607
     61 H25        -5.0380    3.7220   -3.8920 hn        1 MOL      0.348607
     62 N7         -0.1440    5.1130   -1.5950 n         1 MOL     -0.210219
     63 C20        -0.3170    5.8700   -0.3140 c3        1 MOL     -0.398991
     64 C21        -1.7860    5.8200    0.3350 c         1 MOL      0.617015
     65 O12        -2.7140    5.2380   -0.2410 o         1 MOL     -0.487869
     66 H26         0.3310    4.2210   -1.4790 hn        1 MOL      0.242764
     67 H27         0.1070    6.8620   -0.4590 h1        1 MOL      0.173160
     68 H28         0.3460    5.2920    0.3410 h1        1 MOL      0.173160
     69 N8         -1.9530    6.4390    1.5340 n         1 MOL     -0.321145
     70 C22        -3.1970    6.4410    2.2560 c3        1 MOL     -0.399889
     71 C23        -3.6020    5.0630    2.7720 c         1 MOL      0.575767
     72 O13        -4.7320    4.7570    3.0610 o         1 MOL     -0.552221
     73 C24        -3.2220    7.4550    3.4130 c3        1 MOL      0.424579
     74 C25        -2.1680    7.0500    4.4820 c3        1 MOL     -0.296639
     75 O14        -3.0300    8.7640    2.9210 oh        1 MOL     -0.624218
     76 H29        -1.1070    6.9060    1.8340 hn        1 MOL      0.227274
     77 H30        -3.9560    6.7690    1.5390 h1        1 MOL      0.195498
     78 H31        -4.1740    7.4550    3.9510 h1        1 MOL      0.067550
     79 H32        -2.1270    8.8350    2.5970 ho        1 MOL      0.394514
     80 H33        -1.9240    7.7700    5.2630 hc        1 MOL      0.071611
     81 H34        -2.4850    6.1020    4.9210 hc        1 MOL      0.071611
     82 H35        -1.1980    6.8630    4.0240 hc        1 MOL      0.071611
     83 N9         -2.5900    4.1700    2.9240 n         1 MOL     -0.289027
     84 C26        -2.7080    2.7080    3.1630 c3        1 MOL     -0.003158
     85 C27        -1.8690    1.9560    2.0910 c         1 MOL      0.536227
     86 O15        -0.8540    2.4450    1.6010 o         1 MOL     -0.488224
     87 C28        -2.2270    2.5330    4.5880 c3        1 MOL      0.135657
     88 C29        -3.2310    3.1060    5.6680 c3        1 MOL      0.137671
     89 C30        -1.8150    1.0910    4.9910 c3        1 MOL     -0.338092
     90 C31        -2.4920    3.6090    6.9410 c3        1 MOL     -0.235849
     91 H36        -1.6560    4.4900    2.6960 hn        1 MOL      0.149129
     92 H37        -3.7350    2.3600    3.1270 h1        1 MOL      0.050223
     93 H38        -1.2870    3.0910    4.6680 hc        1 MOL      0.038591
     94 H39        -3.9070    2.3240    6.0120 hc        1 MOL     -0.026225
     95 H40        -3.8510    3.9090    5.2890 hc        1 MOL     -0.026225
     96 H41        -1.3970    1.0490    5.9890 hc        1 MOL      0.083785
     97 H42        -2.7480    0.5380    4.8500 hc        1 MOL      0.083785
     98 H43        -1.0620    0.7560    4.2800 hc        1 MOL      0.083785
     99 H44        -1.7170    4.3470    6.7350 hc        1 MOL      0.052279
    100 H45        -3.2860    3.9090    7.6290 hc        1 MOL      0.052279
    101 H46        -2.0250    2.7670    7.4440 hc        1 MOL      0.052279
    102 N10        -2.2790    0.7440    1.7950 n         1 MOL     -0.617291
    103 C32        -1.6610   -0.1030    0.7320 c3        1 MOL      0.289901
    104 C33        -2.6670   -0.8330   -0.1810 c         1 MOL      0.512566
    105 O16        -2.3850   -1.8910   -0.7520 o         1 MOL     -0.487263
    106 C34        -0.6130   -1.0130    1.4230 c3        1 MOL     -0.175029
    107 C35         0.5390   -1.6110    0.5780 c         1 MOL      0.697197
    108 O17         1.1330   -2.6750    0.9650 o         1 MOL     -0.740619
    109 O18         0.9230   -0.9970   -0.4340 o         1 MOL     -0.740619
    110 H47        -3.0530    0.3300    2.3070 hn        1 MOL      0.336502
    111 H48        -1.1190    0.5230    0.0260 h1        1 MOL      0.031043
    112 H49        -1.1280   -1.8680    1.8780 hc        1 MOL      0.054084
    113 H50        -0.0840   -0.4900    2.2160 hc        1 MOL      0.054084
    114 N11        -3.8400   -0.2220   -0.3840 n         1 MOL     -0.484199
    115 C36        -4.9410   -0.8120   -1.0970 c3        1 MOL      0.121410
    116 C37        -5.4730   -2.0860   -0.4190 c         1 MOL      0.285634
    117 O19        -5.6160   -1.9970    0.8130 o         1 MOL     -0.526232
    118 C38        -6.0940    0.2390   -1.0580 c3        1 MOL     -0.155615
    119 C39        -7.4310   -0.3680   -1.6290 ca        1 MOL      0.034477
    120 C40        -7.5950   -0.6200   -3.0220 ca        1 MOL     -0.165816
    121 C41        -8.4410   -0.7330   -0.6820 ca        1 MOL     -0.165816
    122 C42        -8.7040   -1.3770   -3.4190 ca        1 MOL     -0.102798
    123 C43        -9.5880   -1.3750   -1.2140 ca        1 MOL     -0.102798
    124 C44        -9.7310   -1.7610   -2.5160 ca        1 MOL     -0.109342
    125 H51        -3.9950    0.6650    0.0670 hn        1 MOL      0.257640
    126 H52        -4.6910   -0.9360   -2.1500 h1        1 MOL      0.051922
    127 H53        -5.8180    1.0130   -1.7760 hc        1 MOL      0.080768
    128 H54        -6.3740    0.6690   -0.1000 hc        1 MOL      0.080768
    129 H55        -6.8590   -0.3070   -3.7400 ha        1 MOL      0.153389
    130 H56        -8.4450   -0.6380    0.3850 ha        1 MOL      0.153389
    131 H57        -8.7420   -1.6310   -4.4670 ha        1 MOL      0.099405
    132 H58       -10.3480   -1.7210   -0.5350 ha        1 MOL      0.099405
    133 H59       -10.5900   -2.3240   -2.8520 ha        1 MOL      0.107453
    134 N12        -5.5510   -3.2520   -1.0190 n         1 MOL     -0.049326
    135 C45        -5.9600   -4.5120   -0.2850 c3        1 MOL      0.161524
    136 C46        -5.0010   -5.2510    0.7020 c         1 MOL      0.131156
    137 O20        -5.5990   -5.8890    1.6180 o         1 MOL     -0.520408
    138 C47        -6.1460   -5.5110   -1.4000 c3        1 MOL      0.210578
    139 C48        -6.5520   -4.6130   -2.5860 c3        1 MOL     -0.113136
    140 C49        -5.5910   -3.4350   -2.4550 c3        1 MOL      0.036991
    141 H60        -6.9360   -4.4470    0.1920 h1        1 MOL      0.046306
    142 H61        -5.2340   -6.0450   -1.6720 hc        1 MOL     -0.036853
    143 H62        -6.9010   -6.2790   -1.2200 hc        1 MOL     -0.036853
    144 H63        -6.3960   -5.1050   -3.5450 hc        1 MOL      0.017999
    145 H64        -7.6050   -4.3690   -2.4250 hc        1 MOL      0.017999
    146 H65        -4.6240   -3.7970   -2.8180 h1        1 MOL      0.022745
    147 H66        -5.9530   -2.5330   -2.9530 h1        1 MOL      0.022745
    148 N13        -3.7490   -5.1950    0.6410 n         1 MOL     -0.026098
    149 C50        -2.7430   -5.9570    1.3970 c3        1 MOL     -0.107224
    150 C51        -2.7620   -5.6420    2.9040 c         1 MOL      0.451009
    151 O21        -2.4270   -6.5140    3.7310 o         1 MOL     -0.534933
    152 C52        -1.3040   -5.6420    0.9620 c3        1 MOL      0.087753
    153 C53        -0.8430   -6.0300   -0.4780 c3        1 MOL     -0.302612
    154 C54         0.4790   -5.3110   -0.8520 c         1 MOL      0.823026
    155 O22         0.6780   -4.6650   -1.8810 o         1 MOL     -0.773647
    156 O23         1.5090   -5.5270   -0.1850 o         1 MOL     -0.773647
    157 H67        -3.4290   -4.6420   -0.1410 hn        1 MOL      0.167396
    158 H68        -2.9160   -7.0180    1.2610 h1        1 MOL      0.105701
    159 H69        -0.6770   -6.1300    1.7140 hc        1 MOL      0.007062
    160 H70        -1.0310   -4.6070    1.1580 hc        1 MOL      0.007062
    161 H71        -1.6490   -5.7410   -1.1560 hc        1 MOL      0.059201
    162 H72        -0.7470   -7.1180   -0.4940 hc        1 MOL      0.059201
    163 N14        -3.0810   -4.3850    3.2700 n         1 MOL     -0.154842
    164 C55        -3.1720   -4.0130    4.7270 c3        1 MOL     -0.463452
    165 H73        -4.0600   -4.4690    5.1630 h1        1 MOL      0.162320
    166 H74        -2.2850   -4.3710    5.2510 h1        1 MOL      0.162320
    167 H75        -3.2370   -2.9290    4.8230 h1        1 MOL      0.162320
    168 H76        -3.3070   -3.7220    2.5420 hn        1 MOL      0.231736
    169 Ca1         2.9460   -3.4540   -0.6580 Ca        1 MOL      1.783078
    170 O24         4.4410   -4.2150    1.6020 oh        1 MOL     -0.843589
    171 H77         4.0780   -4.6040    2.4090 ho        1 MOL      0.407146
    172 H78         5.3320   -3.9780    1.8320 ho        1 MOL      0.407146
    173 O25         4.3630   -5.5340   -1.6650 oh        1 MOL     -0.843589
    174 H79         4.4820   -5.8060   -2.5760 ho        1 MOL      0.407146
    175 H80         4.5620   -6.3130   -1.1570 ho        1 MOL      0.407146
    176 O26         3.4480   -0.8440    0.3410 oh        1 MOL     -0.843589
    177 H81         3.8680   -0.0150    0.5760 ho        1 MOL      0.407146
    178 H82         2.5570   -0.6000    0.0980 ho        1 MOL      0.407146
    179 O27         5.6710   -2.7500   -0.7890 oh        1 MOL     -0.843589
    180 H83         6.0430   -3.0990   -1.5970 ho        1 MOL      0.407146
    181 H84         6.4320   -2.5570   -0.2330 ho        1 MOL      0.407146
@<TRIPOS>BOND
     1    1    2 1   
     2    1    4 1   
     3    1    5 1   
     4    1    6 1   
     5    2    3 2   
     6    2    7 1   
     7    7    8 1   
     8    7   15 1   
     9    8    9 1   
    10    8   11 1   
    11    8   16 1   
    12    9   10 2   
    13    9   19 1   
    14   11   12 1   
    15   11   17 1   
    16   11   18 1   
    17   12   13 1   
    18   12   14 1   
    19   19   20 1   
    20   19   24 1   
    21   20   21 1   
    22   20   23 1   
    23   20   25 1   
    24   21   22 2   
    25   21   29 1   
    26   23   26 1   
    27   23   27 1   
    28   23   28 1   
    29   29   30 1   
    30   29   37 1   
    31   30   31 1   
    32   30   33 1   
    33   30   38 1   
    34   31   32 2   
    35   31   41 1   
    36   33   34 1   
    37   33   39 1   
    38   33   40 1   
    39   34   35 1   
    40   34   36 1   
    41   41   42 1   
    42   41   45 1   
    43   42   43 1   
    44   42   46 1   
    45   42   47 1   
    46   43   44 2   
    47   43   48 1   
    48   48   49 1   
    49   48   56 1   
    50   49   50 1   
    51   49   52 1   
    52   49   57 1   
    53   50   51 2   
    54   50   62 1   
    55   52   53 1   
    56   52   58 1   
    57   52   59 1   
    58   53   54 1   
    59   53   55 2   
    60   54   60 1   
    61   54   61 1   
    62   62   63 1   
    63   62   66 1   
    64   63   64 1   
    65   63   67 1   
    66   63   68 1   
    67   64   65 2   
    68   64   69 1   
    69   69   70 1   
    70   69   76 1   
    71   70   71 1   
    72   70   73 1   
    73   70   77 1   
    74   71   72 2   
    75   71   83 1   
    76   73   74 1   
    77   73   75 1   
    78   73   78 1   
    79   74   80 1   
    80   74   81 1   
    81   74   82 1   
    82   75   79 1   
    83   83   84 1   
    84   83   91 1   
    85   84   85 1   
    86   84   87 1   
    87   84   92 1   
    88   85   86 2   
    89   85  102 1   
    90   87   88 1   
    91   87   89 1   
    92   87   93 1   
    93   88   90 1   
    94   88   94 1   
    95   88   95 1   
    96   89   96 1   
    97   89   97 1   
    98   89   98 1   
    99   90   99 1   
   100   90  100 1   
   101   90  101 1   
   102  102  103 1   
   103  102  110 1   
   104  103  104 1   
   105  103  106 1   
   106  103  111 1   
   107  104  105 2   
   108  104  114 1   
   109  106  107 1   
   110  106  112 1   
   111  106  113 1   
   112  107  108 1   
   113  107  109 1   
   114  114  115 1   
   115  114  125 1   
   116  115  116 1   
   117  115  118 1   
   118  115  126 1   
   119  116  117 2   
   120  116  134 1   
   121  118  119 1   
   122  118  127 1   
   123  118  128 1   
   124  119  120 ar  
   125  119  121 ar  
   126  120  122 ar  
   127  120  129 1   
   128  121  123 ar  
   129  121  130 1   
   130  122  124 ar  
   131  122  131 1   
   132  123  124 ar  
   133  123  132 1   
   134  124  133 1   
   135  134  135 1   
   136  134  140 1   
   137  135  136 1   
   138  135  138 1   
   139  135  141 1   
   140  136  137 2   
   141  136  148 1   
   142  138  139 1   
   143  138  142 1   
   144  138  143 1   
   145  139  140 1   
   146  139  144 1   
   147  139  145 1   
   148  140  146 1   
   149  140  147 1   
   150  148  149 1   
   151  148  157 1   
   152  149  150 1   
   153  149  152 1   
   154  149  158 1   
   155  150  151 2   
   156  150  163 1   
   157  152  153 1   
   158  152  159 1   
   159  152  160 1   
   160  153  154 1   
   161  153  161 1   
   162  153  162 1   
   163  154  155 1   
   164  154  156 1   
   165  163  164 1   
   166  163  168 1   
   167  164  165 1   
   168  164  166 1   
   169  164  167 1   
   170  170  171 1   
   171  170  172 1   
   172  173  174 1   
   173  173  175 1   
   174  176  177 1   
   175  176  178 1   
   176  179  180 1   
   177  179  181 1   
@<TRIPOS>SUBSTRUCTURE
     1 MOL         1 TEMP              0 ****  ****    0 ROOT
