@<TRIPOS>MOLECULE
MOL
  179   176     1     0     0
SMALL
resp


@<TRIPOS>ATOM
      1 C1          3.3500    0.2130    6.2790 c3        1 MOL     -0.311836
      2 C2          3.0480    0.5530    4.7830 c         1 MOL      0.728128
      3 O1          3.8920    0.4790    3.8490 o         1 MOL     -0.599645
      4 H1          3.4520   -0.8660    6.3920 hc        1 MOL      0.086821
      5 H2          4.2770    0.6980    6.5830 hc        1 MOL      0.086821
      6 H3          2.5310    0.5670    6.9050 hc        1 MOL      0.086821
      7 N1          1.8570    1.0210    4.5160 n         1 MOL     -0.558217
      8 C3          1.3340    1.3680    3.1830 c3        1 MOL     -0.063692
      9 C4          1.9540    2.6830    2.6490 c         1 MOL      0.632035
     10 O2          1.5970    3.7760    3.0760 o         1 MOL     -0.537990
     11 C5         -0.1840    1.4270    3.2370 c3        1 MOL     -0.004735
     12 C6         -0.9200    1.6340    1.9220 c         1 MOL      0.484755
     13 O3         -2.1880    1.6250    1.9190 o         1 MOL     -0.659011
     14 O4         -0.2610    1.7690    0.8470 o         1 MOL     -0.659011
     15 H4          1.1750    0.9130    5.2650 hn        1 MOL      0.307763
     16 H5          1.6580    0.6190    2.4430 h1        1 MOL      0.061648
     17 H6         -0.4450    2.2330    3.9190 hc        1 MOL      0.034291
     18 H7         -0.5850    0.4960    3.6470 hc        1 MOL      0.034291
     19 N2          2.7090    2.5880    1.5030 n         1 MOL     -0.461401
     20 C7          3.3530    3.7510    0.8410 c3        1 MOL      0.097403
     21 C8          2.3490    4.7110    0.2160 c         1 MOL      0.310039
     22 O5          2.5370    5.9130    0.2010 o         1 MOL     -0.522837
     23 C9          4.4230    3.3640   -0.1320 c3        1 MOL      0.154287
     24 C10         5.2130    4.5990   -0.5520 c3        1 MOL     -0.313821
     25 C11         6.3960    4.0820   -1.4390 c3        1 MOL      0.130647
     26 C12         6.9480    5.1490   -2.3620 c3        1 MOL     -0.000238
     27 N3          7.9240    4.6430   -3.2920 n4        1 MOL     -0.140837
     28 H8          2.7770    1.6400    1.1460 hn        1 MOL      0.279655
     29 H9          3.8960    4.3570    1.5670 h1        1 MOL      0.086078
     30 H10         3.9010    2.9440   -0.9960 hc        1 MOL     -0.005450
     31 H11         5.0880    2.6520    0.3550 hc        1 MOL     -0.005450
     32 H12         5.6410    5.0320    0.3560 hc        1 MOL      0.112909
     33 H13         4.5820    5.2690   -1.1360 hc        1 MOL      0.112909
     34 H14         6.0450    3.2740   -2.0890 hc        1 MOL      0.017173
     35 H15         7.1760    3.7140   -0.7850 hc        1 MOL      0.017173
     36 H16         7.3390    5.9800   -1.7780 hx        1 MOL      0.060276
     37 H17         6.1540    5.4870   -3.0130 hx        1 MOL      0.060276
     38 H18         7.5820    4.1300   -4.0810 hn        1 MOL      0.247170
     39 H19         8.4020    5.4000   -3.7660 hn        1 MOL      0.247170
     40 H20         8.6870    4.1230   -2.8820 hn        1 MOL      0.247170
     41 N4          1.2830    4.1740   -0.4420 n         1 MOL     -0.139360
     42 C13         0.2790    4.9280   -1.2750 c3        1 MOL     -0.022976
     43 C14        -0.8580    5.3520   -0.3880 c         1 MOL      0.441511
     44 O6         -1.6230    6.2490   -0.7620 o         1 MOL     -0.568913
     45 C15        -0.1630    4.1860   -2.5550 c3        1 MOL     -0.293492
     46 C16        -0.7350    2.8620   -2.1980 c         1 MOL      0.663567
     47 O7         -1.8910    2.7630   -1.8040 o         1 MOL     -0.715377
     48 O8          0.0140    1.8870   -2.1650 o         1 MOL     -0.715377
     49 H21         1.2260    3.1630   -0.4720 hn        1 MOL      0.160032
     50 H22         0.7170    5.8600   -1.6280 h1        1 MOL      0.098611
     51 H23         0.7930    3.9640   -3.0310 hc        1 MOL      0.092397
     52 H24        -0.7370    4.8150   -3.2460 hc        1 MOL      0.092397
     53 N5         -1.1030    4.7310    0.7520 n         1 MOL      0.015563
     54 C17        -2.1250    5.1020    1.6980 c3        1 MOL     -0.425493
     55 C18        -3.5510    4.7610    1.2680 c         1 MOL      0.605670
     56 O9         -4.5120    5.0570    2.0090 o         1 MOL     -0.586239
     57 H25        -0.4900    3.9990    1.0830 hn        1 MOL      0.168501
     58 H26        -2.1670    6.1630    1.9150 h1        1 MOL      0.166711
     59 H27        -1.9560    4.4620    2.5700 h1        1 MOL      0.166711
     60 N6         -3.7010    4.0200    0.2090 n         1 MOL     -0.147978
     61 C19        -4.9210    3.6240   -0.4540 c3        1 MOL      0.001017
     62 C20        -5.2190    2.1700   -0.7500 c         1 MOL      0.661545
     63 O10        -4.3130    1.3430   -0.9460 o         1 MOL     -0.572772
     64 C21        -5.1190    4.5670   -1.7080 c3        1 MOL     -0.211898
     65 C22        -6.4890    4.2000   -2.4600 c         1 MOL      0.588833
     66 N7         -6.3320    3.5190   -3.5970 n         1 MOL     -0.765811
     67 O11        -7.5330    4.7060   -2.0410 o         1 MOL     -0.545963
     68 H28        -2.8190    3.6460   -0.1130 hn        1 MOL      0.135922
     69 H29        -5.7510    3.9410    0.1950 h1        1 MOL      0.026721
     70 H30        -4.2960    4.4480   -2.4250 hc        1 MOL      0.099991
     71 H31        -5.1650    5.6230   -1.4410 hc        1 MOL      0.099991
     72 H32        -5.3820    3.2320   -3.8020 hn        1 MOL      0.366823
     73 H33        -7.1400    3.4520   -4.1960 hn        1 MOL      0.366823
     74 N8         -6.5370    1.7880   -0.8640 n         1 MOL     -0.504276
     75 C23        -6.8770    0.4670   -1.3140 c3        1 MOL     -0.130475
     76 C24        -6.3620   -0.4610   -0.2280 c         1 MOL      0.636807
     77 O12        -6.6820   -0.3720    0.9610 o         1 MOL     -0.513099
     78 H34        -7.2900    2.4590   -0.9320 hn        1 MOL      0.351265
     79 H35        -6.4900    0.1500   -2.2810 h1        1 MOL      0.082875
     80 H36        -7.9650    0.3820   -1.3130 h1        1 MOL      0.082875
     81 N9         -5.6690   -1.5120   -0.6910 n         1 MOL     -0.597911
     82 C25        -5.1000   -2.6230    0.1870 c3        1 MOL      0.216639
     83 C26        -3.8000   -2.1980    0.9100 c         1 MOL      0.256584
     84 O13        -3.3220   -1.0820    0.7260 o         1 MOL     -0.344742
     85 C27        -4.8230   -3.8380   -0.7000 c3        1 MOL     -0.151948
     86 C28        -6.0860   -4.3600   -1.3530 ca        1 MOL     -0.039315
     87 C29        -6.2110   -4.4750   -2.7470 ca        1 MOL     -0.047925
     88 C30        -7.0910   -4.8220   -0.5100 ca        1 MOL     -0.047925
     89 C31        -7.3900   -5.1190   -3.2900 ca        1 MOL     -0.389595
     90 C32        -8.2090   -5.4520   -0.9640 ca        1 MOL     -0.389595
     91 C33        -8.3300   -5.5620   -2.4080 ca        1 MOL      0.497989
     92 O14        -9.4400   -6.2250   -2.7540 oh        1 MOL     -0.543290
     93 H37        -5.4710   -1.5100   -1.6750 hn        1 MOL      0.324505
     94 H38        -5.9020   -2.8630    0.8850 h1        1 MOL      0.075838
     95 H39        -4.3490   -4.6440   -0.1490 hc        1 MOL      0.037985
     96 H40        -4.1350   -3.5030   -1.4850 hc        1 MOL      0.037985
     97 H41        -5.3810   -4.1920   -3.3810 ha        1 MOL      0.110895
     98 H42        -6.8620   -4.8510    0.5400 ha        1 MOL      0.110895
     99 H43        -7.4280   -5.2680   -4.3640 ha        1 MOL      0.188913
    100 H44        -8.8980   -5.8540   -0.2330 ha        1 MOL      0.188913
    101 H45        -9.8830   -6.6130   -2.0010 ho        1 MOL      0.393148
    102 N10        -3.2740   -3.0340    1.7950 n         1 MOL     -0.521277
    103 C34        -2.2300   -2.7340    2.8060 c3        1 MOL      0.289764
    104 C35        -0.8990   -2.2300    2.2650 c         1 MOL      0.367469
    105 O15        -0.7460   -1.3960    1.3290 o         1 MOL     -0.469214
    106 C36        -2.6670   -1.7580    3.9080 c3        1 MOL      0.319875
    107 C37        -1.6930   -1.6600    5.0090 c3        1 MOL     -0.486438
    108 C38        -4.1440   -1.8950    4.3270 c3        1 MOL     -0.168780
    109 C39        -1.4670   -2.8450    5.9050 c3        1 MOL      0.131219
    110 H46        -3.6750   -3.9580    1.7530 hn        1 MOL      0.285726
    111 H47        -2.0260   -3.6740    3.3230 h1        1 MOL     -0.034649
    112 H48        -2.6600   -0.7710    3.4340 hc        1 MOL      0.008912
    113 H49        -2.0990   -0.7970    5.5490 hc        1 MOL      0.134478
    114 H50        -0.7360   -1.3180    4.6070 hc        1 MOL      0.134478
    115 H51        -4.4010   -1.1950    5.1130 hc        1 MOL      0.046812
    116 H52        -4.8440   -1.8050    3.4940 hc        1 MOL      0.046812
    117 H53        -4.2050   -2.8880    4.7690 hc        1 MOL      0.046812
    118 H54        -2.2970   -3.5390    5.8600 hc        1 MOL     -0.019958
    119 H55        -0.6060   -3.4100    5.5310 hc        1 MOL     -0.019958
    120 H56        -1.3240   -2.6130    6.9610 hc        1 MOL     -0.019958
    121 N11         0.1250   -2.8340    2.7990 n         1 MOL     -0.554577
    122 C40         1.4790   -2.3490    2.6980 c3        1 MOL     -0.017087
    123 C41         2.1600   -2.2950    1.2930 c         1 MOL      0.434482
    124 O16         3.1510   -1.6940    1.1440 o         1 MOL     -0.489951
    125 C42         2.3850   -3.0420    3.6380 c3        1 MOL      0.054179
    126 O17         2.1050   -2.8090    4.9480 oh        1 MOL     -0.601314
    127 H57        -0.0730   -3.5080    3.5250 hn        1 MOL      0.328998
    128 H58         1.5770   -1.3350    3.0730 h1        1 MOL      0.195265
    129 H59         3.4290   -2.7590    3.5110 h1        1 MOL      0.100882
    130 H60         2.3540   -4.1090    3.4200 h1        1 MOL      0.100882
    131 H61         1.4130   -3.3820    5.3050 ho        1 MOL      0.393623
    132 N12         1.6290   -2.8500    0.2350 n         1 MOL     -0.361868
    133 C43         2.2260   -2.7290   -1.1100 c3        1 MOL     -0.039088
    134 C44         1.9150   -1.3560   -1.7590 c         1 MOL      0.796122
    135 O18         0.8090   -0.8080   -1.6350 o         1 MOL     -0.702748
    136 C45         1.6980   -3.7870   -2.0150 c3        1 MOL     -0.267832
    137 H62         0.7050   -3.2520    0.3080 hn        1 MOL      0.276823
    138 H63         3.3030   -2.8240   -1.1200 h1        1 MOL      0.176094
    139 H64         0.6330   -3.6500   -2.1500 hc        1 MOL      0.071499
    140 H65         2.0500   -3.6950   -3.0460 hc        1 MOL      0.071499
    141 H66         1.8310   -4.7940   -1.6410 hc        1 MOL      0.071499
    142 N13         2.9110   -0.7720   -2.5010 n         1 MOL     -0.584104
    143 C46         4.3420   -1.0390   -2.5980 c3        1 MOL      0.024058
    144 C47         4.6320   -2.3680   -3.3730 c         1 MOL      0.621723
    145 O19         4.0980   -2.6270   -4.4530 o         1 MOL     -0.574434
    146 C48         5.0320    0.1280   -3.2760 c3        1 MOL     -0.021950
    147 H67         2.5410    0.0170   -3.0180 hn        1 MOL      0.325950
    148 H68         4.8860   -1.2150   -1.6730 h1        1 MOL      0.113396
    149 H69         4.7110    0.2210   -4.3150 hc        1 MOL      0.015584
    150 H70         4.8540    1.0280   -2.6840 hc        1 MOL      0.015584
    151 H71         6.1200    0.0150   -3.3320 hc        1 MOL      0.015584
    152 N14         5.4100   -3.3120   -2.8330 n         1 MOL     -0.607326
    153 C49         6.1350   -3.3250   -1.5360 c3        1 MOL     -0.082432
    154 C50         6.3700   -4.7490   -1.0050 c         1 MOL      0.594860
    155 O20         6.1160   -4.9910    0.1930 o         1 MOL     -0.532353
    156 C51         7.4390   -2.5050   -1.6700 c3        1 MOL      0.213695
    157 C52         8.0920   -2.1460   -0.3140 c3        1 MOL     -0.410417
    158 C53         9.2860   -1.2180   -0.4690 c         1 MOL      0.788751
    159 O21        10.3550   -1.7560   -0.8740 o         1 MOL     -0.712232
    160 O22         9.2340   -0.0090   -0.3260 o         1 MOL     -0.712232
    161 H72         5.5630   -4.0740   -3.4830 hn        1 MOL      0.296030
    162 H73         5.4670   -2.9770   -0.7500 h1        1 MOL      0.078304
    163 H74         7.1630   -1.5090   -2.0210 hc        1 MOL     -0.031761
    164 H75         8.0800   -3.0630   -2.3410 hc        1 MOL     -0.031761
    165 H76         8.2010   -3.1000    0.2020 hc        1 MOL      0.082105
    166 H77         7.2630   -1.7000    0.2530 hc        1 MOL      0.082105
    167 N15         6.6900   -5.6960   -1.8610 n         1 MOL     -0.313693
    168 C54         6.7180   -7.0820   -1.5100 c3        1 MOL     -0.259118
    169 H78         5.7930   -7.3450   -0.9970 h1        1 MOL      0.116302
    170 H79         6.8150   -7.6850   -2.4130 h1        1 MOL      0.116302
    171 H80         7.5640   -7.2740   -0.8510 h1        1 MOL      0.116302
    172 H81         6.9210   -5.4520   -2.8240 hn        1 MOL      0.300973
    173 Ca1        -1.5820    0.3830   -0.8550 Ca        1 MOL      1.727152
    174 O23        -1.7540   -0.2350   -3.4250 oh        1 MOL     -0.793497
    175 H82        -2.1170   -0.2940   -4.3160 ho        1 MOL      0.406324
    176 H83        -0.8410   -0.4880   -3.5280 ho        1 MOL      0.406324
    177 O24        -1.6160   -2.2570   -1.4920 oh        1 MOL     -0.793497
    178 H84        -1.4170   -2.4920   -2.3960 ho        1 MOL      0.406324
    179 H85        -1.4080   -3.0410   -0.9900 ho        1 MOL      0.406324
@<TRIPOS>BOND
     1    1    2 1   
     2    1    4 1   
     3    1    5 1   
     4    1    6 1   
     5    2    3 2   
     6    2    7 1   
     7    7    8 1   
     8    7   15 1   
     9    8    9 1   
    10    8   11 1   
    11    8   16 1   
    12    9   10 2   
    13    9   19 1   
    14   11   12 1   
    15   11   17 1   
    16   11   18 1   
    17   12   13 1   
    18   12   14 1   
    19   19   20 1   
    20   19   28 1   
    21   20   21 1   
    22   20   23 1   
    23   20   29 1   
    24   21   22 2   
    25   21   41 1   
    26   23   24 1   
    27   23   30 1   
    28   23   31 1   
    29   24   25 1   
    30   24   32 1   
    31   24   33 1   
    32   25   26 1   
    33   25   34 1   
    34   25   35 1   
    35   26   27 1   
    36   26   36 1   
    37   26   37 1   
    38   27   38 1   
    39   27   39 1   
    40   27   40 1   
    41   41   42 1   
    42   41   49 1   
    43   42   43 1   
    44   42   45 1   
    45   42   50 1   
    46   43   44 2   
    47   43   53 1   
    48   45   46 1   
    49   45   51 1   
    50   45   52 1   
    51   46   47 1   
    52   46   48 1   
    53   53   54 1   
    54   53   57 1   
    55   54   55 1   
    56   54   58 1   
    57   54   59 1   
    58   55   56 2   
    59   55   60 1   
    60   60   61 1   
    61   60   68 1   
    62   61   62 1   
    63   61   64 1   
    64   61   69 1   
    65   62   63 2   
    66   62   74 1   
    67   64   65 1   
    68   64   70 1   
    69   64   71 1   
    70   65   66 1   
    71   65   67 2   
    72   66   72 1   
    73   66   73 1   
    74   74   75 1   
    75   74   78 1   
    76   75   76 1   
    77   75   79 1   
    78   75   80 1   
    79   76   77 2   
    80   76   81 1   
    81   81   82 1   
    82   81   93 1   
    83   82   83 1   
    84   82   85 1   
    85   82   94 1   
    86   83   84 2   
    87   83  102 1   
    88   85   86 1   
    89   85   95 1   
    90   85   96 1   
    91   86   87 ar  
    92   86   88 ar  
    93   87   89 ar  
    94   87   97 1   
    95   88   90 ar  
    96   88   98 1   
    97   89   91 ar  
    98   89   99 1   
    99   90   91 ar  
   100   90  100 1   
   101   91   92 1   
   102   92  101 1   
   103  102  103 1   
   104  102  110 1   
   105  103  104 1   
   106  103  106 1   
   107  103  111 1   
   108  104  105 2   
   109  104  121 1   
   110  106  107 1   
   111  106  108 1   
   112  106  112 1   
   113  107  109 1   
   114  107  113 1   
   115  107  114 1   
   116  108  115 1   
   117  108  116 1   
   118  108  117 1   
   119  109  118 1   
   120  109  119 1   
   121  109  120 1   
   122  121  122 1   
   123  121  127 1   
   124  122  123 1   
   125  122  125 1   
   126  122  128 1   
   127  123  124 2   
   128  123  132 1   
   129  125  126 1   
   130  125  129 1   
   131  125  130 1   
   132  126  131 1   
   133  132  133 1   
   134  132  137 1   
   135  133  134 1   
   136  133  136 1   
   137  133  138 1   
   138  134  135 2   
   139  134  142 1   
   140  136  139 1   
   141  136  140 1   
   142  136  141 1   
   143  142  143 1   
   144  142  147 1   
   145  143  144 1   
   146  143  146 1   
   147  143  148 1   
   148  144  145 2   
   149  144  152 1   
   150  146  149 1   
   151  146  150 1   
   152  146  151 1   
   153  152  153 1   
   154  152  161 1   
   155  153  154 1   
   156  153  156 1   
   157  153  162 1   
   158  154  155 2   
   159  154  167 1   
   160  156  157 1   
   161  156  163 1   
   162  156  164 1   
   163  157  158 1   
   164  157  165 1   
   165  157  166 1   
   166  158  159 1   
   167  158  160 1   
   168  167  168 1   
   169  167  172 1   
   170  168  169 1   
   171  168  170 1   
   172  168  171 1   
   173  174  175 1   
   174  174  176 1   
   175  177  178 1   
   176  177  179 1   
@<TRIPOS>SUBSTRUCTURE
     1 MOL         1 TEMP              0 ****  ****    0 ROOT
