@<TRIPOS>MOLECULE
MOL
  178   175     1     0     0
SMALL
resp


@<TRIPOS>ATOM
      1 C1          0.3190    6.2890   -1.5200 c3        1 MOL     -0.311783
      2 C2          1.7800    6.2780   -0.9310 c         1 MOL      0.635205
      3 O1          2.0310    6.6390    0.2580 o         1 MOL     -0.593143
      4 H1         -0.3710    6.6770   -0.7710 hc        1 MOL      0.074859
      5 H2          0.2890    6.9240   -2.4050 hc        1 MOL      0.074859
      6 H3          0.0280    5.2740   -1.7900 hc        1 MOL      0.074859
      7 N1          2.7360    5.8670   -1.7590 n         1 MOL     -0.491596
      8 C3          4.1430    5.8530   -1.3890 c3        1 MOL      0.039702
      9 C4          4.4240    4.7290   -0.3760 c         1 MOL      0.636776
     10 O2          4.2360    3.5450   -0.7100 o         1 MOL     -0.592617
     11 C5          5.0510    5.7680   -2.6540 c3        1 MOL     -0.160028
     12 C6          6.5690    5.7290   -2.5060 c         1 MOL      0.675882
     13 O3          7.0940    5.0060   -1.6290 o         1 MOL     -0.719215
     14 O4          7.2230    6.3710   -3.3370 o         1 MOL     -0.719215
     15 H4          2.4690    5.4840   -2.6550 hn        1 MOL      0.278458
     16 H5          4.3110    6.8240   -0.9260 h1        1 MOL      0.059492
     17 H6          4.8550    6.6350   -3.2790 hc        1 MOL      0.028222
     18 H7          4.7080    4.8920   -3.2100 hc        1 MOL      0.028222
     19 N2          5.0450    5.0470    0.7180 n         1 MOL     -0.610644
     20 C7          5.2890    4.0350    1.8280 c3        1 MOL      0.538472
     21 C8          4.0070    3.4400    2.3740 c         1 MOL      0.286185
     22 O5          2.9350    3.9840    2.2600 o         1 MOL     -0.474880
     23 C9          6.0370    4.7060    3.0190 c3        1 MOL     -0.333688
     24 H8          5.1350    6.0420    0.8670 hn        1 MOL      0.303600
     25 H9          5.9250    3.2230    1.4810 h1        1 MOL      0.035913
     26 H10         5.4290    5.5600    3.3410 hc        1 MOL      0.072470
     27 H11         6.0830    3.9330    3.7800 hc        1 MOL      0.072470
     28 H12         7.0730    4.9500    2.7550 hc        1 MOL      0.072470
     29 N3          3.9480    2.2350    2.9770 n         1 MOL     -0.248808
     30 C10         4.9290    1.2400    3.2500 c3        1 MOL     -0.153153
     31 C11         5.3170    0.4490    1.9890 c         1 MOL      0.613253
     32 O6          4.8040    0.7360    0.8890 o         1 MOL     -0.425574
     33 C12         4.3980    0.3720    4.3110 c3        1 MOL      0.139273
     34 C13         3.0680   -0.4390    4.1780 c         1 MOL      0.491909
     35 O7          2.7200   -1.2070    5.1010 o         1 MOL     -0.596699
     36 O8          2.2770   -0.1120    3.2500 o         1 MOL     -0.596699
     37 H13         3.0040    1.8860    3.0250 hn        1 MOL      0.166723
     38 H14         5.8470    1.6920    3.6140 h1        1 MOL      0.072476
     39 H15         4.3520    0.9240    5.2440 hc        1 MOL     -0.058790
     40 H16         5.2330   -0.3270    4.3200 hc        1 MOL     -0.058790
     41 N4          6.2910   -0.4790    2.1130 n         1 MOL     -0.710644
     42 C14         6.8650   -1.5150    1.1050 c3        1 MOL      0.177702
     43 C15         7.8100   -0.9200    0.0690 c         1 MOL      0.439115
     44 O9          8.1260    0.2800    0.1930 o         1 MOL     -0.434795
     45 H17         6.5230   -0.7310    3.0630 hn        1 MOL      0.407393
     46 H18         6.0150   -2.0560    0.6820 h1        1 MOL      0.019790
     47 H19         7.3640   -2.2530    1.7380 h1        1 MOL      0.019790
     48 N5          8.0530   -1.6480   -1.0230 n         1 MOL     -0.579974
     49 C16         7.4290   -2.9300   -1.3970 c3        1 MOL      0.192016
     50 C17         6.0350   -2.6740   -2.1190 c         1 MOL      0.598864
     51 O10         5.6160   -1.5810   -2.4200 o         1 MOL     -0.461102
     52 C18         8.4270   -3.7310   -2.3410 c3        1 MOL     -0.292406
     53 C19         9.5400   -4.5360   -1.6570 c         1 MOL      0.762539
     54 N6         10.0870   -5.4970   -2.3980 n         1 MOL     -0.880346
     55 O11         9.9020   -4.2770   -0.5340 o         1 MOL     -0.535026
     56 H20         8.7020   -1.2590   -1.7010 hn        1 MOL      0.364529
     57 H21         7.1940   -3.6020   -0.5680 h1        1 MOL      0.015012
     58 H22         8.8230   -3.0450   -3.0970 hc        1 MOL      0.066945
     59 H23         7.8290   -4.4550   -2.8900 hc        1 MOL      0.066945
     60 H24         9.6150   -5.7550   -3.2460 hn        1 MOL      0.386620
     61 H25        11.0530   -5.7490   -2.2100 hn        1 MOL      0.386620
     62 N7          5.2420   -3.7250   -2.3870 n         1 MOL     -0.574567
     63 C20         4.0530   -3.6850   -3.2640 c3        1 MOL     -0.119387
     64 C21         2.6800   -3.9400   -2.6120 c         1 MOL      0.575341
     65 O12         1.7120   -4.1310   -3.3190 o         1 MOL     -0.575519
     66 H26         5.6200   -4.6470   -2.1920 hn        1 MOL      0.291938
     67 H27         3.9990   -4.4430   -4.0500 h1        1 MOL      0.124035
     68 H28         3.9690   -2.6990   -3.7250 h1        1 MOL      0.124035
     69 N8          2.5080   -3.9710   -1.2760 n         1 MOL     -0.136169
     70 C22         1.2860   -4.4750   -0.6720 c3        1 MOL     -0.664913
     71 C23         0.1300   -3.4900   -0.6470 c         1 MOL      0.793496
     72 O13         0.1850   -2.4200   -0.0950 o         1 MOL     -0.598894
     73 C24         1.5600   -5.1030    0.7030 c3        1 MOL      0.575399
     74 C25         0.3460   -5.7100    1.3490 c3        1 MOL     -0.433477
     75 O14         2.6210   -6.0140    0.8080 oh        1 MOL     -0.648802
     76 H29         3.2230   -3.7280   -0.6010 hn        1 MOL      0.178820
     77 H30         0.9920   -5.3150   -1.2900 h1        1 MOL      0.192872
     78 H31         1.8800   -4.3530    1.4190 h1        1 MOL     -0.017189
     79 H32         3.4690   -5.7860    0.4230 ho        1 MOL      0.358902
     80 H33        -0.2810   -6.1300    0.5670 hc        1 MOL      0.131456
     81 H34         0.5830   -6.3710    2.1890 hc        1 MOL      0.131456
     82 H35        -0.2860   -4.9200    1.7600 hc        1 MOL      0.131456
     83 N9         -1.0260   -3.8400   -1.2240 n         1 MOL     -0.419959
     84 C26        -2.3250   -3.1780   -0.9790 c3        1 MOL     -0.149051
     85 C27        -2.7450   -3.4210    0.5040 c         1 MOL      0.425484
     86 O15        -2.7370   -4.5490    0.8990 o         1 MOL     -0.522899
     87 C28        -3.5220   -3.6050   -1.9370 c3        1 MOL      0.208929
     88 C29        -4.8600   -2.9120   -1.7280 c3        1 MOL      0.288206
     89 C30        -2.8970   -3.4880   -3.3440 c3        1 MOL     -0.366914
     90 C31        -5.8420   -3.0090   -2.9400 c3        1 MOL     -0.319760
     91 H36        -1.0060   -4.7290   -1.6940 hn        1 MOL      0.297783
     92 H37        -2.2570   -2.0890   -1.0760 h1        1 MOL      0.184024
     93 H38        -3.7730   -4.6510   -1.7630 hc        1 MOL     -0.032465
     94 H39        -4.6610   -1.8550   -1.5450 hc        1 MOL     -0.051607
     95 H40        -5.3650   -3.4020   -0.8900 hc        1 MOL     -0.051607
     96 H41        -2.5750   -2.4620   -3.4730 hc        1 MOL      0.086700
     97 H42        -2.0570   -4.1540   -3.5290 hc        1 MOL      0.086700
     98 H43        -3.6230   -3.7340   -4.1160 hc        1 MOL      0.086700
     99 H44        -5.4770   -2.4740   -3.8250 hc        1 MOL      0.049700
    100 H45        -6.0520   -4.0700   -3.0950 hc        1 MOL      0.049700
    101 H46        -6.7800   -2.5570   -2.6380 hc        1 MOL      0.049700
    102 N10        -3.0870   -2.3390    1.1490 n         1 MOL     -0.459055
    103 C32        -3.8790   -2.4150    2.4610 c3        1 MOL      0.113903
    104 C33        -5.2270   -1.6610    2.4130 c         1 MOL      0.328847
    105 O16        -5.9400   -1.6150    3.4170 o         1 MOL     -0.547344
    106 C34        -3.0400   -1.8640    3.6440 c3        1 MOL      0.194443
    107 C35        -1.5020   -2.1460    3.6770 c         1 MOL      0.633012
    108 O17        -0.7300   -1.3620    3.0680 o         1 MOL     -0.685039
    109 O18        -1.0760   -3.0070    4.4830 o         1 MOL     -0.685039
    110 H47        -2.9690   -1.4590    0.6670 hn        1 MOL      0.184918
    111 H48        -3.9510   -3.4590    2.7530 h1        1 MOL      0.067224
    112 H49        -3.4660   -2.2730    4.5610 hc        1 MOL     -0.058938
    113 H50        -3.1370   -0.7830    3.5620 hc        1 MOL     -0.058938
    114 N11        -5.4940   -0.9690    1.3100 n         1 MOL     -0.401490
    115 C36        -6.7830   -0.2790    1.2490 c3        1 MOL      0.419226
    116 C37        -6.6490    1.1190    0.5780 c         1 MOL      0.160230
    117 O19        -7.2620    1.3700   -0.4560 o         1 MOL     -0.460842
    118 C38        -7.7140   -1.3330    0.6390 c3        1 MOL     -0.348192
    119 C39        -9.2270   -1.0140    0.3490 ca        1 MOL      0.121089
    120 C40        -9.7980   -1.4380   -0.8040 ca        1 MOL     -0.165511
    121 C41        -9.8910   -0.2840    1.3320 ca        1 MOL     -0.165511
    122 C42       -11.1520   -1.1460   -1.0150 ca        1 MOL     -0.065242
    123 C43       -11.2370   -0.0440    1.1850 ca        1 MOL     -0.065242
    124 C44       -11.9100   -0.4830   -0.0240 ca        1 MOL     -0.212683
    125 H51        -4.8080   -1.0310    0.5660 hn        1 MOL      0.315456
    126 H52        -7.0390   -0.0760    2.2860 h1        1 MOL      0.019365
    127 H53        -7.6540   -2.2910    1.1390 hc        1 MOL      0.124789
    128 H54        -7.2490   -1.6040   -0.3140 hc        1 MOL      0.124789
    129 H55        -9.1310   -1.9440   -1.4900 ha        1 MOL      0.115985
    130 H56        -9.3740    0.0050    2.2320 ha        1 MOL      0.115985
    131 H57       -11.6640   -1.6210   -1.8270 ha        1 MOL      0.089123
    132 H58       -11.7930    0.4490    1.9700 ha        1 MOL      0.089123
    133 H59       -12.9400   -0.2250   -0.2080 ha        1 MOL      0.123866
    134 N12        -5.8230    2.0510    1.1680 n         1 MOL      0.101257
    135 C45        -5.5590    3.4420    0.6880 c3        1 MOL      0.111512
    136 C46        -5.1850    3.5240   -0.8150 c         1 MOL      0.134322
    137 O20        -5.4920    4.4770   -1.4790 o         1 MOL     -0.441822
    138 C47        -4.4370    3.9730    1.5000 c3        1 MOL     -0.224485
    139 C48        -4.6790    3.3290    2.8560 c3        1 MOL      0.170393
    140 C49        -5.3840    1.9610    2.5180 c3        1 MOL     -0.329080
    141 H60        -6.5110    3.9490    0.8470 h1        1 MOL      0.051132
    142 H61        -3.4180    3.6850    1.2290 hc        1 MOL      0.097549
    143 H62        -4.6020    5.0420    1.6540 hc        1 MOL      0.097549
    144 H63        -3.7860    3.2500    3.4730 hc        1 MOL     -0.016665
    145 H64        -5.3490    4.0110    3.3910 hc        1 MOL     -0.016665
    146 H65        -4.6280    1.1910    2.6690 h1        1 MOL      0.109590
    147 H66        -6.2750    1.7850    3.1160 h1        1 MOL      0.109590
    148 N13        -4.6470    2.4060   -1.3080 n         1 MOL      0.035288
    149 C50        -4.3910    2.1630   -2.7090 c3        1 MOL     -0.154723
    150 C51        -5.5860    2.1940   -3.6700 c         1 MOL      0.488334
    151 O21        -5.5540    2.9300   -4.6270 o         1 MOL     -0.549778
    152 C52        -3.6750    0.8140   -2.8740 c3        1 MOL      0.039275
    153 C53        -2.2440    0.7960   -2.3740 c3        1 MOL     -0.255930
    154 C54        -2.1470    0.4910   -0.8730 c         1 MOL      0.526773
    155 O22        -1.0120    0.5640   -0.3870 o         1 MOL     -0.630991
    156 O23        -3.1270    0.0620   -0.2440 o         1 MOL     -0.630991
    157 H67        -4.4200    1.6400   -0.7010 hn        1 MOL      0.188830
    158 H68        -3.6760    2.9110   -3.0640 h1        1 MOL      0.096490
    159 H69        -3.4970    0.6080   -3.9210 hc        1 MOL     -0.007979
    160 H70        -4.2370    0.0030   -2.4110 hc        1 MOL     -0.007979
    161 H71        -1.7160    1.7110   -2.6700 hc        1 MOL      0.107967
    162 H72        -1.7220    0.0420   -2.9720 hc        1 MOL      0.107967
    163 N14        -6.6300    1.4330   -3.4430 n         1 MOL     -0.209077
    164 C55        -7.8210    1.4180   -4.3190 c3        1 MOL     -0.206410
    165 H73        -8.6640    1.8630   -3.7920 h1        1 MOL      0.089471
    166 H74        -7.6140    1.9910   -5.2230 h1        1 MOL      0.089471
    167 H75        -8.0620    0.3890   -4.5870 h1        1 MOL      0.089471
    168 H76        -6.6700    0.8270   -2.6400 hn        1 MOL      0.227729
    169 Ca1         0.6950   -0.2040    1.2930 Ca        1 MOL      1.618063
    170 O24         0.1970    2.3480    2.0780 oh        1 MOL     -0.810474
    171 H77         0.9110    2.9660    1.9460 ho        1 MOL      0.398000
    172 H78        -0.4140    2.8090    2.6560 ho        1 MOL      0.398000
    173 O25         3.1260   -1.4730    0.3670 oh        1 MOL     -0.810474
    174 H79         3.9050   -1.0680   -0.0170 ho        1 MOL      0.398000
    175 H80         3.4310   -1.8740    1.1800 ho        1 MOL      0.398000
    176 O26         2.3850    1.3160    0.0100 oh        1 MOL     -0.810474
    177 H81         3.3280    1.3000    0.1720 ho        1 MOL      0.398000
    178 H82         2.2900    1.7520   -0.8310 ho        1 MOL      0.398000
@<TRIPOS>BOND
     1    1    2 1   
     2    1    4 1   
     3    1    5 1   
     4    1    6 1   
     5    2    3 2   
     6    2    7 1   
     7    7    8 1   
     8    7   15 1   
     9    8    9 1   
    10    8   11 1   
    11    8   16 1   
    12    9   10 2   
    13    9   19 1   
    14   11   12 1   
    15   11   17 1   
    16   11   18 1   
    17   12   13 1   
    18   12   14 1   
    19   19   20 1   
    20   19   24 1   
    21   20   21 1   
    22   20   23 1   
    23   20   25 1   
    24   21   22 2   
    25   21   29 1   
    26   23   26 1   
    27   23   27 1   
    28   23   28 1   
    29   29   30 1   
    30   29   37 1   
    31   30   31 1   
    32   30   33 1   
    33   30   38 1   
    34   31   32 2   
    35   31   41 1   
    36   33   34 1   
    37   33   39 1   
    38   33   40 1   
    39   34   35 1   
    40   34   36 1   
    41   41   42 1   
    42   41   45 1   
    43   42   43 1   
    44   42   46 1   
    45   42   47 1   
    46   43   44 2   
    47   43   48 1   
    48   48   49 1   
    49   48   56 1   
    50   49   50 1   
    51   49   52 1   
    52   49   57 1   
    53   50   51 2   
    54   50   62 1   
    55   52   53 1   
    56   52   58 1   
    57   52   59 1   
    58   53   54 1   
    59   53   55 2   
    60   54   60 1   
    61   54   61 1   
    62   62   63 1   
    63   62   66 1   
    64   63   64 1   
    65   63   67 1   
    66   63   68 1   
    67   64   65 2   
    68   64   69 1   
    69   69   70 1   
    70   69   76 1   
    71   70   71 1   
    72   70   73 1   
    73   70   77 1   
    74   71   72 2   
    75   71   83 1   
    76   73   74 1   
    77   73   75 1   
    78   73   78 1   
    79   74   80 1   
    80   74   81 1   
    81   74   82 1   
    82   75   79 1   
    83   83   84 1   
    84   83   91 1   
    85   84   85 1   
    86   84   87 1   
    87   84   92 1   
    88   85   86 2   
    89   85  102 1   
    90   87   88 1   
    91   87   89 1   
    92   87   93 1   
    93   88   90 1   
    94   88   94 1   
    95   88   95 1   
    96   89   96 1   
    97   89   97 1   
    98   89   98 1   
    99   90   99 1   
   100   90  100 1   
   101   90  101 1   
   102  102  103 1   
   103  102  110 1   
   104  103  104 1   
   105  103  106 1   
   106  103  111 1   
   107  104  105 2   
   108  104  114 1   
   109  106  107 1   
   110  106  112 1   
   111  106  113 1   
   112  107  108 1   
   113  107  109 1   
   114  114  115 1   
   115  114  125 1   
   116  115  116 1   
   117  115  118 1   
   118  115  126 1   
   119  116  117 2   
   120  116  134 1   
   121  118  119 1   
   122  118  127 1   
   123  118  128 1   
   124  119  120 ar  
   125  119  121 ar  
   126  120  122 ar  
   127  120  129 1   
   128  121  123 ar  
   129  121  130 1   
   130  122  124 ar  
   131  122  131 1   
   132  123  124 ar  
   133  123  132 1   
   134  124  133 1   
   135  134  135 1   
   136  134  140 1   
   137  135  136 1   
   138  135  138 1   
   139  135  141 1   
   140  136  137 2   
   141  136  148 1   
   142  138  139 1   
   143  138  142 1   
   144  138  143 1   
   145  139  140 1   
   146  139  144 1   
   147  139  145 1   
   148  140  146 1   
   149  140  147 1   
   150  148  149 1   
   151  148  157 1   
   152  149  150 1   
   153  149  152 1   
   154  149  158 1   
   155  150  151 2   
   156  150  163 1   
   157  152  153 1   
   158  152  159 1   
   159  152  160 1   
   160  153  154 1   
   161  153  161 1   
   162  153  162 1   
   163  154  155 1   
   164  154  156 1   
   165  163  164 1   
   166  163  168 1   
   167  164  165 1   
   168  164  166 1   
   169  164  167 1   
   170  170  171 1   
   171  170  172 1   
   172  173  174 1   
   173  173  175 1   
   174  176  177 1   
   175  176  178 1   
@<TRIPOS>SUBSTRUCTURE
     1 MOL         1 TEMP              0 ****  ****    0 ROOT
