@<TRIPOS>MOLECULE
MOL
  198   191     1     0     0
SMALL
resp


@<TRIPOS>ATOM
      1 C1         -3.9140    1.3720    5.0260 c3        1 MOL     -0.515085
      2 C2         -4.9510    0.3410    4.4730 c         1 MOL      0.705603
      3 O1         -4.8760   -0.8250    4.8040 o         1 MOL     -0.579365
      4 H1         -4.2470    2.3840    4.7910 hc        1 MOL      0.142788
      5 H2         -3.8290    1.2600    6.1070 hc        1 MOL      0.142788
      6 H3         -2.9420    1.1940    4.5640 hc        1 MOL      0.142788
      7 N1         -6.0090    0.7980    3.6950 n         1 MOL     -0.496055
      8 C3         -7.0010   -0.0820    2.9890 c3        1 MOL      0.118933
      9 C4         -6.5190   -0.4870    1.5240 c         1 MOL      0.380905
     10 O2         -5.5310    0.0280    0.9980 o         1 MOL     -0.474300
     11 C5         -8.3030    0.7800    2.8760 c3        1 MOL     -0.278452
     12 C6         -8.0930    1.8640    1.9170 c         1 MOL      0.818922
     13 O3         -7.4140    2.8760    2.1650 o         1 MOL     -0.748564
     14 O4         -8.5820    1.7250    0.7960 o         1 MOL     -0.748564
     15 H4         -6.1170    1.7890    3.5690 hn        1 MOL      0.258840
     16 H5         -7.2390   -0.9860    3.5460 h1        1 MOL      0.056821
     17 H6         -8.5910    1.1780    3.8550 hc        1 MOL      0.073103
     18 H7         -9.1890    0.2090    2.5740 hc        1 MOL      0.073103
     19 N2         -7.2130   -1.3840    0.8170 n         1 MOL     -0.603077
     20 C7         -6.7220   -2.0210   -0.4030 c3        1 MOL      0.277701
     21 C8         -7.0090   -1.2820   -1.6950 c         1 MOL      0.532396
     22 O5         -7.1110   -1.9260   -2.7520 o         1 MOL     -0.570866
     23 C9         -7.0910   -3.5320   -0.4100 c3        1 MOL     -0.090992
     24 C10        -6.3170   -4.4560    0.6190 c3        1 MOL      0.392889
     25 C11        -6.7900   -5.8800    0.3820 c3        1 MOL     -0.373289
     26 C12        -5.9990   -6.8370    1.3820 c3        1 MOL      0.241101
     27 N3         -4.7830   -7.3820    0.6670 n4        1 MOL     -0.585707
     28 H8         -7.9900   -1.7120    1.3860 hn        1 MOL      0.326966
     29 H9         -5.6470   -1.9830   -0.3010 h1        1 MOL      0.006310
     30 H10        -6.9870   -3.9520   -1.4050 hc        1 MOL      0.001066
     31 H11        -8.1350   -3.5130   -0.1160 hc        1 MOL      0.001066
     32 H12        -6.6910   -4.1320    1.5890 hc        1 MOL     -0.059828
     33 H13        -5.2300   -4.4140    0.4780 hc        1 MOL     -0.059828
     34 H14        -6.6360   -6.2580   -0.6290 hc        1 MOL      0.106090
     35 H15        -7.8170   -5.9290    0.7300 hc        1 MOL      0.106090
     36 H16        -6.6860   -7.6010    1.7610 hx        1 MOL      0.040474
     37 H17        -5.6680   -6.3560    2.2920 hx        1 MOL      0.040474
     38 H18        -5.0970   -7.8830   -0.1620 hn        1 MOL      0.364216
     39 H19        -4.0920   -6.6960    0.3930 hn        1 MOL      0.364216
     40 H20        -4.2840   -8.1240    1.1310 hn        1 MOL      0.364216
     41 N4         -6.9350    0.0420   -1.6450 n         1 MOL     -0.307591
     42 C13        -6.7590    1.0310   -2.7260 c3        1 MOL      0.137225
     43 C14        -5.9010    2.2860   -2.2240 c         1 MOL      0.120091
     44 O6         -6.0260    2.5880   -1.0700 o         1 MOL     -0.431264
     45 C15        -8.0500    1.3720   -3.4690 c3        1 MOL     -0.142761
     46 C16        -9.0550    2.0620   -2.5880 c         1 MOL      0.635775
     47 O7        -10.1720    1.4950   -2.4920 o         1 MOL     -0.673648
     48 O8         -8.8370    3.1400   -2.0800 o         1 MOL     -0.673648
     49 H21        -6.6340    0.3500   -0.7320 hn        1 MOL      0.283830
     50 H22        -6.1580    0.6370   -3.5370 h1        1 MOL      0.024850
     51 H23        -8.5900    0.4960   -3.8470 hc        1 MOL      0.045972
     52 H24        -7.7840    2.0800   -4.2470 hc        1 MOL      0.045972
     53 N5         -4.9400    2.8350   -2.9710 n         1 MOL     -0.069690
     54 C17        -4.4490    2.4920   -4.3100 c3        1 MOL     -0.362510
     55 C18        -3.5090    1.3780   -4.3260 c         1 MOL      0.699949
     56 O9         -3.0810    0.9110   -5.4210 o         1 MOL     -0.556399
     57 H25        -4.3790    3.5180   -2.4720 hn        1 MOL      0.220225
     58 H26        -3.9140    3.3790   -4.6460 h1        1 MOL      0.149478
     59 H27        -5.2200    2.2890   -5.0560 h1        1 MOL      0.149478
     60 N6         -3.1380    0.7990   -3.1600 n         1 MOL     -0.557629
     61 C19        -2.3430   -0.4340   -3.1170 c3        1 MOL      0.197901
     62 C20        -2.9570   -1.5580   -2.2980 c         1 MOL      0.318889
     63 O10        -3.6780   -1.3360   -1.3070 o         1 MOL     -0.397680
     64 C21        -0.9110   -0.2370   -2.6190 c3        1 MOL     -0.042312
     65 C22        -0.2190    0.8890   -3.4140 c         1 MOL      0.671819
     66 O11         0.4100    0.5830   -4.4440 o         1 MOL     -0.665970
     67 O12        -0.2570    2.0880   -2.9860 o         1 MOL     -0.665970
     68 H28        -3.4320    1.1380   -2.2560 hn        1 MOL      0.324869
     69 H29        -2.2130   -0.8970   -4.1010 h1        1 MOL      0.016593
     70 H30        -0.3520   -1.1660   -2.7100 hc        1 MOL     -0.020558
     71 H31        -0.9750    0.0410   -1.5680 hc        1 MOL     -0.020558
     72 N7         -2.6080   -2.7680   -2.7180 n         1 MOL     -0.249337
     73 C23        -3.1470   -4.0460   -2.1650 c3        1 MOL     -0.517074
     74 C24        -2.5090   -4.5490   -0.8520 c         1 MOL      0.725405
     75 O13        -2.3400   -5.7590   -0.6960 o         1 MOL     -0.657429
     76 H32        -2.1260   -2.9000   -3.5970 hn        1 MOL      0.314367
     77 H33        -2.8540   -4.7630   -2.9340 h1        1 MOL      0.191862
     78 H34        -4.2130   -3.9160   -1.9570 h1        1 MOL      0.191862
     79 N8         -2.0490   -3.6240   -0.0700 n         1 MOL     -0.178010
     80 C25        -1.3590   -3.7120    1.1420 c3        1 MOL     -0.204731
     81 C26        -0.5880   -2.4090    1.4250 c         1 MOL      0.574616
     82 O14        -0.9800   -1.3800    0.8950 o         1 MOL     -0.386398
     83 C27        -2.3600   -4.0410    2.3190 c3        1 MOL      0.031992
     84 C28        -3.4980   -3.0420    2.6580 c3        1 MOL     -0.468262
     85 O15        -3.0770   -5.2680    2.0470 oh        1 MOL     -0.530977
     86 H35        -2.3440   -2.7000   -0.3600 hn        1 MOL      0.136802
     87 H36        -0.6470   -4.5330    1.0330 h1        1 MOL      0.113542
     88 H37        -1.8110   -4.3280    3.2230 h1        1 MOL      0.097345
     89 H38        -2.3170   -5.8540    1.9810 ho        1 MOL      0.357596
     90 H39        -3.1150   -2.2010    3.2390 hc        1 MOL      0.177816
     91 H40        -3.9570   -2.6970    1.7340 hc        1 MOL      0.177816
     92 H41        -4.2030   -3.5680    3.2940 hc        1 MOL      0.177816
     93 N9          0.5680   -2.4710    2.1000 n         1 MOL     -0.495435
     94 C29         1.1840   -1.3460    2.8080 c3        1 MOL     -0.104467
     95 C30         2.4170   -0.7930    2.0310 c         1 MOL      0.524631
     96 O16         2.6010    0.4120    1.7800 o         1 MOL     -0.532777
     97 C31         1.4330   -1.8350    4.2680 c3        1 MOL      0.177499
     98 C32         0.2920   -2.4860    5.1040 c3        1 MOL     -0.072386
     99 C33         2.0720   -0.6610    5.0210 c3        1 MOL     -0.382331
    100 C34         0.7810   -3.0400    6.4810 c3        1 MOL     -0.086525
    101 H42         0.8550   -3.3480    2.4980 hn        1 MOL      0.301737
    102 H43         0.5190   -0.4790    2.8090 h1        1 MOL      0.121065
    103 H44         2.1800   -2.6320    4.2260 hc        1 MOL     -0.004632
    104 H45        -0.0220   -3.3160    4.4870 hc        1 MOL      0.046750
    105 H46        -0.4840   -1.7490    5.3130 hc        1 MOL      0.046750
    106 H47         2.9070   -0.2010    4.4900 hc        1 MOL      0.110785
    107 H48         1.3310    0.0710    5.3280 hc        1 MOL      0.110785
    108 H49         2.5740   -0.9820    5.9300 hc        1 MOL      0.110785
    109 H50         1.2050   -4.0150    6.2320 hc        1 MOL      0.024861
    110 H51         1.5910   -2.4860    6.9610 hc        1 MOL      0.024861
    111 H52        -0.1300   -3.1470    7.0750 hc        1 MOL      0.024861
    112 N10         3.0880   -1.6690    1.2660 n         1 MOL     -0.246132
    113 C35         4.2130   -1.3030    0.3390 c3        1 MOL     -0.392390
    114 C36         5.2240   -2.3810    0.1050 c         1 MOL      0.746148
    115 O17         4.9340   -3.5120    0.2080 o         1 MOL     -0.549966
    116 C37         3.8130   -0.7430   -1.0450 c3        1 MOL      0.559305
    117 C38         2.7880   -1.5410   -1.8350 c3        1 MOL     -0.095557
    118 O18         3.3450    0.5810   -0.9760 oh        1 MOL     -0.676578
    119 H53         2.9000   -2.6610    1.3430 hn        1 MOL      0.199086
    120 H54         4.7370   -0.4470    0.7790 h1        1 MOL      0.152031
    121 H55         4.6900   -0.7370   -1.6910 h1        1 MOL     -0.032173
    122 H56         2.6810    0.6630   -0.2910 ho        1 MOL      0.446277
    123 H57         1.9160   -1.6920   -1.1910 hc        1 MOL      0.002354
    124 H58         2.5070   -1.0540   -2.7700 hc        1 MOL      0.002354
    125 H59         3.2820   -2.4790   -2.0810 hc        1 MOL      0.002354
    126 N11         6.5110   -2.0270    0.0000 n         1 MOL     -0.560794
    127 C39         7.6430   -2.9660   -0.3020 c3        1 MOL     -0.052363
    128 C40         9.0260   -2.3640    0.1240 c         1 MOL      0.576783
    129 O19         9.7680   -3.0270    0.8970 o         1 MOL     -0.573036
    130 C41         7.5990   -3.2970   -1.8140 c3        1 MOL      0.331583
    131 C42         8.4900   -4.5080   -2.0310 c3        1 MOL     -0.633669
    132 O20         7.9900   -2.1220   -2.5100 oh        1 MOL     -0.528801
    133 H60         6.7470   -1.0480    0.1210 hn        1 MOL      0.267701
    134 H61         7.6080   -3.8610    0.3310 h1        1 MOL      0.116739
    135 H62         6.5780   -3.5480   -2.0970 h1        1 MOL      0.038217
    136 H63         7.3220   -2.0380   -3.2010 ho        1 MOL      0.368891
    137 H64         8.3520   -5.2940   -1.2880 hc        1 MOL      0.173750
    138 H65         8.3570   -4.8420   -3.0550 hc        1 MOL      0.173750
    139 H66         9.5230   -4.1530   -1.9870 hc        1 MOL      0.173750
    140 N12         9.4220   -1.1550   -0.3040 n         1 MOL     -0.347681
    141 C43        10.6310   -0.3130    0.0380 c3        1 MOL      0.037325
    142 C44        10.3070    1.1700   -0.1040 c         1 MOL      0.643057
    143 O21         9.5520    1.4870   -1.0350 o         1 MOL     -0.546792
    144 C45        11.7350   -0.7070   -0.9600 c3        1 MOL     -0.406486
    145 C46        11.5780   -0.4330   -2.4530 c3        1 MOL      0.198626
    146 C47        12.5990   -1.1450   -3.2730 c3        1 MOL     -0.075066
    147 C48        12.3890   -0.9240   -4.7490 c3        1 MOL     -0.018831
    148 N13        13.6500   -1.2540   -5.5210 n4        1 MOL     -0.163470
    149 H67         8.7780   -0.8310   -1.0120 hn        1 MOL      0.221919
    150 H68        11.0410   -0.4230    1.0410 h1        1 MOL      0.094069
    151 H69        11.7460   -1.7920   -0.8810 hc        1 MOL      0.120867
    152 H70        12.6700   -0.2520   -0.6340 hc        1 MOL      0.120867
    153 H71        11.6650    0.6360   -2.6180 hc        1 MOL      0.007684
    154 H72        10.6170   -0.7630   -2.8450 hc        1 MOL      0.007684
    155 H73        12.5910   -2.2120   -3.0740 hc        1 MOL      0.039124
    156 H74        13.5350   -0.6260   -3.0620 hc        1 MOL      0.039124
    157 H75        12.3510    0.1560   -4.8960 hx        1 MOL      0.083801
    158 H76        11.5450   -1.5180   -5.1030 hx        1 MOL      0.083801
    159 H77        13.9520   -2.2020   -5.3410 hn        1 MOL      0.204056
    160 H78        13.4850   -1.2560   -6.5140 hn        1 MOL      0.204056
    161 H79        14.3780   -0.5710   -5.4260 hn        1 MOL      0.204056
    162 N14        10.8640    1.9800    0.7990 n         1 MOL     -0.647305
    163 C49        10.5000    3.4580    0.7700 c3        1 MOL      0.325428
    164 C50         8.9530    3.7000    1.0760 c         1 MOL      0.264910
    165 O22         8.2610    4.4060    0.2860 o         1 MOL     -0.495507
    166 C51        11.4230    4.2340    1.6790 c3        1 MOL     -0.066689
    167 C52        10.8830    5.6680    2.0170 c3        1 MOL     -0.161640
    168 C53        12.0680    6.4790    2.6140 c         1 MOL      0.705954
    169 O23        12.7710    5.9470    3.4520 o         1 MOL     -0.668128
    170 O24        12.1360    7.7190    2.3390 o         1 MOL     -0.668128
    171 H80        11.3170    1.6290    1.6330 hn        1 MOL      0.325104
    172 H81        10.6770    3.8780   -0.2240 h1        1 MOL      0.043848
    173 H82        12.4000    4.3560    1.2100 hc        1 MOL      0.018085
    174 H83        11.5070    3.6190    2.5760 hc        1 MOL      0.018085
    175 H84        10.0520    5.5600    2.7160 hc        1 MOL      0.045179
    176 H85        10.5810    6.1300    1.0750 hc        1 MOL      0.045179
    177 N15         8.3430    3.1280    2.1100 n         1 MOL     -0.287440
    178 C54         8.8710    2.3530    3.2780 c3        1 MOL     -0.100903
    179 H86         8.9710    1.3040    3.0000 h1        1 MOL      0.070500
    180 H87         9.8450    2.7470    3.5660 h1        1 MOL      0.070500
    181 H88         8.1790    2.4420    4.1160 h1        1 MOL      0.070500
    182 H89         7.3340    3.1120    2.0630 hn        1 MOL      0.288882
    183 Ca1        -7.9790    4.2050   -0.0050 Ca        1 MOL      1.724795
    184 O25        -6.8040    5.9000   -1.9660 oh        1 MOL     -0.805031
    185 H90        -7.0450    5.9140   -2.8940 ho        1 MOL      0.398848
    186 H91        -6.8710    6.8150   -1.6880 ho        1 MOL      0.398848
    187 O26        -8.0470    6.6110    0.9700 oh        1 MOL     -0.805031
    188 H92        -8.2420    6.9590    1.8360 ho        1 MOL      0.398848
    189 H93        -8.0620    7.3790    0.3900 ho        1 MOL      0.398848
    190 O27       -10.2900    4.2490    1.1510 oh        1 MOL     -0.805031
    191 H94       -11.1280    4.4960    0.7330 ho        1 MOL      0.398848
    192 H95       -10.4620    4.3110    2.0840 ho        1 MOL      0.398848
    193 O28        -5.4760    4.9080    0.7050 oh        1 MOL     -0.805031
    194 H96        -4.8430    5.6330    0.6940 ho        1 MOL      0.398848
    195 H97        -4.9420    4.1230    0.6370 ho        1 MOL      0.398848
    196 O29        -9.9060    5.8770   -1.1200 oh        1 MOL     -0.805031
    197 H98       -10.4480    6.2460   -0.4220 ho        1 MOL      0.398848
    198 H99       -10.1930    6.3360   -1.9130 ho        1 MOL      0.398848
@<TRIPOS>BOND
     1    1    2 1   
     2    1    4 1   
     3    1    5 1   
     4    1    6 1   
     5    2    3 2   
     6    2    7 1   
     7    7    8 1   
     8    7   15 1   
     9    8    9 1   
    10    8   11 1   
    11    8   16 1   
    12    9   10 2   
    13    9   19 1   
    14   11   12 1   
    15   11   17 1   
    16   11   18 1   
    17   12   13 1   
    18   12   14 1   
    19   19   20 1   
    20   19   28 1   
    21   20   21 1   
    22   20   23 1   
    23   20   29 1   
    24   21   22 2   
    25   21   41 1   
    26   23   24 1   
    27   23   30 1   
    28   23   31 1   
    29   24   25 1   
    30   24   32 1   
    31   24   33 1   
    32   25   26 1   
    33   25   34 1   
    34   25   35 1   
    35   26   27 1   
    36   26   36 1   
    37   26   37 1   
    38   27   38 1   
    39   27   39 1   
    40   27   40 1   
    41   41   42 1   
    42   41   49 1   
    43   42   43 1   
    44   42   45 1   
    45   42   50 1   
    46   43   44 2   
    47   43   53 1   
    48   45   46 1   
    49   45   51 1   
    50   45   52 1   
    51   46   47 1   
    52   46   48 1   
    53   53   54 1   
    54   53   57 1   
    55   54   55 1   
    56   54   58 1   
    57   54   59 1   
    58   55   56 2   
    59   55   60 1   
    60   60   61 1   
    61   60   68 1   
    62   61   62 1   
    63   61   64 1   
    64   61   69 1   
    65   62   63 2   
    66   62   72 1   
    67   64   65 1   
    68   64   70 1   
    69   64   71 1   
    70   65   66 1   
    71   65   67 1   
    72   72   73 1   
    73   72   76 1   
    74   73   74 1   
    75   73   77 1   
    76   73   78 1   
    77   74   75 2   
    78   74   79 1   
    79   79   80 1   
    80   79   86 1   
    81   80   81 1   
    82   80   83 1   
    83   80   87 1   
    84   81   82 2   
    85   81   93 1   
    86   83   84 1   
    87   83   85 1   
    88   83   88 1   
    89   84   90 1   
    90   84   91 1   
    91   84   92 1   
    92   85   89 1   
    93   93   94 1   
    94   93  101 1   
    95   94   95 1   
    96   94   97 1   
    97   94  102 1   
    98   95   96 2   
    99   95  112 1   
   100   97   98 1   
   101   97   99 1   
   102   97  103 1   
   103   98  100 1   
   104   98  104 1   
   105   98  105 1   
   106   99  106 1   
   107   99  107 1   
   108   99  108 1   
   109  100  109 1   
   110  100  110 1   
   111  100  111 1   
   112  112  113 1   
   113  112  119 1   
   114  113  114 1   
   115  113  116 1   
   116  113  120 1   
   117  114  115 2   
   118  114  126 1   
   119  116  117 1   
   120  116  118 1   
   121  116  121 1   
   122  117  123 1   
   123  117  124 1   
   124  117  125 1   
   125  118  122 1   
   126  126  127 1   
   127  126  133 1   
   128  127  128 1   
   129  127  130 1   
   130  127  134 1   
   131  128  129 2   
   132  128  140 1   
   133  130  131 1   
   134  130  132 1   
   135  130  135 1   
   136  131  137 1   
   137  131  138 1   
   138  131  139 1   
   139  132  136 1   
   140  140  141 1   
   141  140  149 1   
   142  141  142 1   
   143  141  144 1   
   144  141  150 1   
   145  142  143 2   
   146  142  162 1   
   147  144  145 1   
   148  144  151 1   
   149  144  152 1   
   150  145  146 1   
   151  145  153 1   
   152  145  154 1   
   153  146  147 1   
   154  146  155 1   
   155  146  156 1   
   156  147  148 1   
   157  147  157 1   
   158  147  158 1   
   159  148  159 1   
   160  148  160 1   
   161  148  161 1   
   162  162  163 1   
   163  162  171 1   
   164  163  164 1   
   165  163  166 1   
   166  163  172 1   
   167  164  165 2   
   168  164  177 1   
   169  166  167 1   
   170  166  173 1   
   171  166  174 1   
   172  167  168 1   
   173  167  175 1   
   174  167  176 1   
   175  168  169 1   
   176  168  170 1   
   177  177  178 1   
   178  177  182 1   
   179  178  179 1   
   180  178  180 1   
   181  178  181 1   
   182  184  185 1   
   183  184  186 1   
   184  187  188 1   
   185  187  189 1   
   186  190  191 1   
   187  190  192 1   
   188  193  194 1   
   189  193  195 1   
   190  196  197 1   
   191  196  198 1   
@<TRIPOS>SUBSTRUCTURE
     1 MOL         1 TEMP              0 ****  ****    0 ROOT
