@<TRIPOS>MOLECULE
MOL
  192   187     1     0     0
SMALL
resp


@<TRIPOS>ATOM
      1 C1          9.6570    0.8040    1.9600 c3        1 MOL     -0.782502
      2 C2          8.4880    0.2190    1.0920 c         1 MOL      0.854628
      3 O1          7.3350    0.3300    1.4730 o         1 MOL     -0.712142
      4 H1         10.5950    0.7160    1.4120 hc        1 MOL      0.199537
      5 H2          9.4600    1.8550    2.1740 hc        1 MOL      0.199537
      6 H3          9.7290    0.2490    2.8950 hc        1 MOL      0.199537
      7 N1          8.6840   -0.2740   -0.1280 n         1 MOL     -0.504416
      8 C3          7.6870   -0.4270   -1.2010 c3        1 MOL     -0.176770
      9 C4          6.7530   -1.6510   -1.0650 c         1 MOL      0.693830
     10 O2          6.1700   -2.0630   -2.0490 o         1 MOL     -0.487792
     11 C5          8.4500   -0.4590   -2.5230 c3        1 MOL     -0.181809
     12 C6          9.5410   -1.5650   -2.6440 c         1 MOL      0.729766
     13 O3         10.3460   -1.4280   -3.6370 o         1 MOL     -0.682785
     14 O4          9.5140   -2.5310   -1.9070 o         1 MOL     -0.682785
     15 H4          9.6410   -0.5450   -0.3430 hn        1 MOL      0.244562
     16 H5          7.1210    0.5070   -1.1940 h1        1 MOL      0.165443
     17 H6          8.8800    0.5170   -2.7460 hc        1 MOL      0.071591
     18 H7          7.7370   -0.5440   -3.3390 hc        1 MOL      0.071591
     19 N2          6.6530   -2.3220    0.0460 n         1 MOL     -0.504767
     20 C7          6.0750   -3.6730    0.2900 c3        1 MOL      0.146595
     21 C8          4.5980   -3.9120   -0.0910 c         1 MOL      0.373386
     22 O5          4.2410   -4.9690   -0.6290 o         1 MOL     -0.546000
     23 C9          6.3150   -4.0130    1.7610 c3        1 MOL     -0.035074
     24 C10         7.8610   -3.9790    2.0660 c3        1 MOL     -0.247794
     25 C11         7.9240   -4.1690    3.6110 c3        1 MOL     -0.256914
     26 C12         9.4020   -4.1280    4.0350 c3        1 MOL     -0.008254
     27 N3          9.6260   -4.0680    5.5200 n4        1 MOL     -0.159142
     28 H8          7.0670   -1.8540    0.8370 hn        1 MOL      0.346196
     29 H9          6.6240   -4.3770   -0.3200 h1        1 MOL      0.107604
     30 H10         5.8720   -4.9840    2.0050 hc        1 MOL      0.032885
     31 H11         5.8360   -3.2430    2.3620 hc        1 MOL      0.032885
     32 H12         8.3230   -3.0060    1.8970 hc        1 MOL      0.127090
     33 H13         8.3140   -4.8670    1.6210 hc        1 MOL      0.127090
     34 H14         7.5540   -5.1700    3.8200 hc        1 MOL      0.124555
     35 H15         7.4030   -3.3880    4.1630 hc        1 MOL      0.124555
     36 H16         9.8690   -3.2210    3.6510 hx        1 MOL      0.098075
     37 H17         9.8550   -5.0230    3.5820 hx        1 MOL      0.098075
     38 H18         9.9780   -3.2440    5.9730 hn        1 MOL      0.271727
     39 H19         8.7800   -4.3620    5.9840 hn        1 MOL      0.271727
     40 H20        10.3810   -4.6830    5.7820 hn        1 MOL      0.271727
     41 N4          3.6530   -2.9790   -0.1310 n         1 MOL     -0.172769
     42 C13         3.6420   -1.6950    0.5880 c3        1 MOL     -0.034512
     43 C14         3.8500   -0.4720   -0.2780 c         1 MOL     -0.084504
     44 O6          3.7720   -0.5360   -1.5080 o         1 MOL     -0.306393
     45 C15         2.5290   -1.5990    1.5070 c3        1 MOL     -0.200717
     46 C16         1.1580   -1.9530    0.8780 c         1 MOL      0.626014
     47 O7          0.8640   -1.4380   -0.2360 o         1 MOL     -0.645073
     48 O8          0.3640   -2.7050    1.5290 o         1 MOL     -0.645073
     49 H21         2.7490   -3.3220   -0.4100 hn        1 MOL      0.298693
     50 H22         4.5130   -1.6830    1.2420 h1        1 MOL      0.087541
     51 H23         2.5160   -0.6310    2.0040 hc        1 MOL      0.055317
     52 H24         2.5500   -2.3730    2.2740 hc        1 MOL      0.055317
     53 N5          4.2490    0.6180    0.4150 n         1 MOL     -0.128094
     54 C17         4.3800    2.0090   -0.1420 c3        1 MOL      0.097104
     55 C18         3.1320    2.6070   -0.8030 c         1 MOL      0.612378
     56 O9          2.0850    1.9070   -0.8710 o         1 MOL     -0.528602
     57 H25         4.4650    0.5860    1.3970 hn        1 MOL      0.261525
     58 H26         5.2220    1.9880   -0.8300 h1        1 MOL      0.019108
     59 H27         4.7260    2.7180    0.6070 h1        1 MOL      0.019108
     60 N6          3.2730    3.8440   -1.3390 n         1 MOL     -0.609753
     61 C19         2.2600    4.6100   -2.1450 c3        1 MOL      0.408262
     62 C20         2.6100    6.1150   -2.2420 c         1 MOL      0.378826
     63 O10         3.7860    6.5050   -2.2530 o         1 MOL     -0.523319
     64 C21         2.1250    4.0710   -3.6400 c3        1 MOL     -0.242882
     65 C22         1.5160    2.7010   -3.6770 c         1 MOL      0.688063
     66 O11         0.3340    2.5630   -3.2280 o         1 MOL     -0.683994
     67 O12         2.1850    1.7230   -4.1410 o         1 MOL     -0.683994
     68 H28         4.1280    4.3000   -1.0630 hn        1 MOL      0.296847
     69 H29         1.2640    4.4520   -1.7330 h1        1 MOL     -0.016212
     70 H30         3.1230    4.0130   -4.0980 hc        1 MOL      0.062886
     71 H31         1.4610    4.7170   -4.2150 hc        1 MOL      0.062886
     72 N7          1.6940    7.0300   -2.4960 n         1 MOL     -0.396394
     73 C23         0.2410    6.9800   -2.4780 c3        1 MOL     -0.091271
     74 C24        -0.4720    6.3360   -1.3320 c         1 MOL      0.594885
     75 O13         0.0890    6.4220   -0.2450 o         1 MOL     -0.478621
     76 H32         2.0780    7.9600   -2.4440 hn        1 MOL      0.320063
     77 H33        -0.1820    6.4960   -3.3570 h1        1 MOL      0.077658
     78 H34        -0.1060    8.0080   -2.6340 h1        1 MOL      0.077658
     79 N8         -1.6630    5.7080   -1.4670 n         1 MOL     -0.583372
     80 C25        -2.2970    5.0150   -0.3430 c3        1 MOL     -0.089249
     81 C26        -1.4290    3.8930    0.2760 c         1 MOL      0.427339
     82 O14        -0.6980    3.1940   -0.4560 o         1 MOL     -0.527464
     83 C27        -3.7160    4.4720   -0.8000 c3        1 MOL      0.465060
     84 C28        -4.6150    5.6440   -1.1660 c3        1 MOL     -0.389307
     85 O15        -4.3060    3.7790    0.2370 oh        1 MOL     -0.630526
     86 H35        -1.9520    5.5800   -2.4290 hn        1 MOL      0.317006
     87 H36        -2.4440    5.7840    0.4190 h1        1 MOL      0.109121
     88 H37        -3.7350    3.8040   -1.6640 h1        1 MOL      0.063045
     89 H38        -4.4270    4.4250    0.9320 ho        1 MOL      0.371405
     90 H39        -4.7250    6.3660   -0.3530 hc        1 MOL      0.100016
     91 H40        -4.2930    6.0380   -2.1360 hc        1 MOL      0.100016
     92 H41        -5.6270    5.2630   -1.2940 hc        1 MOL      0.100016
     93 N9         -1.5590    3.7580    1.5880 n         1 MOL     -0.521166
     94 C29        -0.8010    2.7810    2.4440 c3        1 MOL      0.537914
     95 C30        -1.1740    1.3590    2.1430 c         1 MOL      0.363113
     96 O16        -0.4610    0.7570    1.3330 o         1 MOL     -0.493980
     97 C31         0.7300    3.0930    2.7190 c3        1 MOL      0.489731
     98 C32         1.1290    4.5430    2.7320 c3        1 MOL     -0.697936
     99 C33         1.1390    2.3620    3.9860 c3        1 MOL     -0.300166
    100 C34         0.5140    5.3930    3.8240 c3        1 MOL      0.060081
    101 H42        -2.0910    4.4890    2.0380 hn        1 MOL      0.283665
    102 H43        -1.3640    2.8150    3.3800 h1        1 MOL     -0.107078
    103 H44         1.2830    2.6130    1.9190 hc        1 MOL     -0.184098
    104 H45         0.8870    5.0300    1.7960 hc        1 MOL      0.208648
    105 H46         2.1940    4.4680    2.9680 hc        1 MOL      0.208648
    106 H47         0.8110    1.3210    4.0240 hc        1 MOL      0.064166
    107 H48         2.2160    2.2630    4.0630 hc        1 MOL      0.064166
    108 H49         0.6250    2.8490    4.8080 hc        1 MOL      0.064166
    109 H50        -0.5570    5.2430    3.7270 hc        1 MOL     -0.003188
    110 H51         0.7660    5.0950    4.8400 hc        1 MOL     -0.003188
    111 H52         0.8160    6.4430    3.8400 hc        1 MOL     -0.003188
    112 N10        -2.3400    0.9750    2.7110 n         1 MOL     -0.643044
    113 C35        -2.7080   -0.4870    2.8250 c3        1 MOL     -0.066506
    114 C36        -4.2450   -0.7270    3.0530 c         1 MOL      0.399009
    115 O17        -4.6310   -1.8210    3.4370 o         1 MOL     -0.523447
    116 C37        -1.8990   -1.2040    4.0140 c3        1 MOL      0.532097
    117 C38        -1.9680   -0.4770    5.3750 c3        1 MOL     -0.214912
    118 O18        -0.5230   -1.2980    3.7210 oh        1 MOL     -0.588240
    119 H53        -2.8370    1.5690    3.3610 hn        1 MOL      0.361414
    120 H54        -2.4840   -1.0910    1.9500 h1        1 MOL      0.144132
    121 H55        -2.2680   -2.2230    4.1340 h1        1 MOL     -0.022015
    122 H56        -0.5180   -1.6270    2.8200 ho        1 MOL      0.331900
    123 H57        -1.5560    0.5260    5.2310 hc        1 MOL      0.036244
    124 H58        -3.0190   -0.3720    5.6130 hc        1 MOL      0.036244
    125 H59        -1.3880   -1.0610    6.0870 hc        1 MOL      0.036244
    126 N11        -5.1170    0.2850    2.7890 n         1 MOL     -0.209732
    127 C39        -6.6360    0.1390    2.8290 c3        1 MOL     -0.006521
    128 C40        -7.1020   -0.4720    1.5240 c         1 MOL      0.366267
    129 O19        -7.5930    0.2980    0.6310 o         1 MOL     -0.481158
    130 C41        -7.3800    1.5040    3.0720 c3        1 MOL      0.255368
    131 C42        -7.1980    1.7780    4.5880 c3        1 MOL     -0.156325
    132 O20        -6.7490    2.5520    2.3050 oh        1 MOL     -0.572031
    133 H60        -4.7490    1.1810    2.5100 hn        1 MOL      0.194893
    134 H61        -6.8660   -0.5710    3.6200 h1        1 MOL      0.087132
    135 H62        -8.4210    1.5080    2.7530 h1        1 MOL      0.043891
    136 H63        -7.0310    2.4600    1.3910 ho        1 MOL      0.372261
    137 H64        -6.2320    1.5240    5.0120 hc        1 MOL      0.039876
    138 H65        -7.3540    2.8320    4.8050 hc        1 MOL      0.039876
    139 H66        -7.9110    1.1600    5.1380 hc        1 MOL      0.039876
    140 N12        -6.9010   -1.7820    1.4230 n         1 MOL     -0.542818
    141 C43        -6.7150   -2.6390    0.2610 c3        1 MOL      0.318733
    142 C44        -5.4290   -2.2360   -0.5450 c         1 MOL      0.533394
    143 O21        -4.8300   -1.1540   -0.3830 o         1 MOL     -0.437930
    144 C45        -7.9670   -2.7280   -0.6220 c3        1 MOL     -0.692261
    145 C46        -9.3490   -2.7460    0.1030 c3        1 MOL      0.371375
    146 C47       -10.4740   -2.8590   -0.9710 c3        1 MOL     -0.047321
    147 C48       -11.9200   -2.8440   -0.3380 c3        1 MOL     -0.107449
    148 N13       -13.0270   -3.0550   -1.3340 n4        1 MOL     -0.042151
    149 H67        -6.4350   -2.1270    2.2600 hn        1 MOL      0.301719
    150 H68        -6.5260   -3.6530    0.6020 h1        1 MOL      0.041093
    151 H69        -7.8150   -3.6160   -1.2380 hc        1 MOL      0.162056
    152 H70        -7.8770   -1.8030   -1.1950 hc        1 MOL      0.162056
    153 H71        -9.5010   -1.8640    0.7120 hc        1 MOL     -0.019885
    154 H72        -9.4300   -3.5300    0.8590 hc        1 MOL     -0.019885
    155 H73       -10.3550   -3.7860   -1.5320 hc        1 MOL      0.047879
    156 H74       -10.3790   -1.9760   -1.6120 hc        1 MOL      0.047879
    157 H75       -11.9270   -1.8160    0.0220 hx        1 MOL      0.082381
    158 H76       -11.7960   -3.6000    0.4320 hx        1 MOL      0.082381
    159 H77       -12.9960   -3.9900   -1.7160 hn        1 MOL      0.175824
    160 H78       -13.9050   -2.9100   -0.8620 hn        1 MOL      0.175824
    161 H79       -13.1330   -2.4020   -2.0990 hn        1 MOL      0.175824
    162 N14        -4.9000   -3.1590   -1.3920 n         1 MOL     -0.631384
    163 C49        -3.6390   -3.0230   -2.1030 c3        1 MOL      0.291071
    164 C50        -2.4300   -2.5140   -1.2220 c         1 MOL      0.295750
    165 O22        -1.9720   -1.3860   -1.3740 o         1 MOL     -0.547327
    166 C51        -3.3170   -4.2880   -2.9210 c3        1 MOL     -0.107352
    167 C52        -4.3550   -4.5420   -4.0700 c3        1 MOL     -0.092329
    168 C53        -4.0000   -5.8730   -4.6810 c         1 MOL      0.684072
    169 O23        -4.6190   -6.8790   -4.3040 o         1 MOL     -0.656139
    170 O24        -3.0250   -5.8700   -5.4820 o         1 MOL     -0.656139
    171 H80        -5.4590   -3.9730   -1.5460 hn        1 MOL      0.357375
    172 H81        -3.8380   -2.2440   -2.8330 h1        1 MOL      0.046096
    173 H82        -3.3640   -5.1250   -2.2240 hc        1 MOL      0.074785
    174 H83        -2.3800   -4.1930   -3.4650 hc        1 MOL      0.074785
    175 H84        -4.3650   -3.7820   -4.8500 hc        1 MOL     -0.023010
    176 H85        -5.3760   -4.7860   -3.7580 hc        1 MOL     -0.023010
    177 N15        -1.9570   -3.2370   -0.2400 n         1 MOL     -0.226458
    178 C54        -2.4470   -4.4790    0.3190 c3        1 MOL      0.049513
    179 H86        -3.4800   -4.6340    0.0070 h1        1 MOL      0.009086
    180 H87        -1.8330   -5.3070   -0.0380 h1        1 MOL      0.009086
    181 H88        -2.4000   -4.4330    1.4070 h1        1 MOL      0.009086
    182 H89        -1.3120   -2.7210    0.3340 hn        1 MOL      0.283137
    183 Ca1        -0.1910    0.6590   -1.4450 Ca        1 MOL      1.795588
    184 O25        -1.9590    0.5880   -3.7000 oh        1 MOL     -0.889202
    185 H90        -1.6130    0.6830   -4.5850 ho        1 MOL      0.423864
    186 H91        -2.8810    0.3630   -3.8320 ho        1 MOL      0.423864
    187 O26        -2.9590    1.0700   -0.5790 oh        1 MOL     -0.889202
    188 H92        -3.5100    0.3360   -0.3110 ho        1 MOL      0.423864
    189 H93        -3.4350    1.8420   -0.2730 ho        1 MOL      0.423864
    190 O27         1.2000   -0.6430   -3.3850 oh        1 MOL     -0.889202
    191 H94         1.4990    0.0680   -3.9560 ho        1 MOL      0.423864
    192 H95         1.9790   -1.1630   -3.2100 ho        1 MOL      0.423864
@<TRIPOS>BOND
     1    1    2 1   
     2    1    4 1   
     3    1    5 1   
     4    1    6 1   
     5    2    3 2   
     6    2    7 1   
     7    7    8 1   
     8    7   15 1   
     9    8    9 1   
    10    8   11 1   
    11    8   16 1   
    12    9   10 2   
    13    9   19 1   
    14   11   12 1   
    15   11   17 1   
    16   11   18 1   
    17   12   13 1   
    18   12   14 1   
    19   19   20 1   
    20   19   28 1   
    21   20   21 1   
    22   20   23 1   
    23   20   29 1   
    24   21   22 2   
    25   21   41 1   
    26   23   24 1   
    27   23   30 1   
    28   23   31 1   
    29   24   25 1   
    30   24   32 1   
    31   24   33 1   
    32   25   26 1   
    33   25   34 1   
    34   25   35 1   
    35   26   27 1   
    36   26   36 1   
    37   26   37 1   
    38   27   38 1   
    39   27   39 1   
    40   27   40 1   
    41   41   42 1   
    42   41   49 1   
    43   42   43 1   
    44   42   45 1   
    45   42   50 1   
    46   43   44 2   
    47   43   53 1   
    48   45   46 1   
    49   45   51 1   
    50   45   52 1   
    51   46   47 1   
    52   46   48 1   
    53   53   54 1   
    54   53   57 1   
    55   54   55 1   
    56   54   58 1   
    57   54   59 1   
    58   55   56 2   
    59   55   60 1   
    60   60   61 1   
    61   60   68 1   
    62   61   62 1   
    63   61   64 1   
    64   61   69 1   
    65   62   63 2   
    66   62   72 1   
    67   64   65 1   
    68   64   70 1   
    69   64   71 1   
    70   65   66 1   
    71   65   67 1   
    72   72   73 1   
    73   72   76 1   
    74   73   74 1   
    75   73   77 1   
    76   73   78 1   
    77   74   75 2   
    78   74   79 1   
    79   79   80 1   
    80   79   86 1   
    81   80   81 1   
    82   80   83 1   
    83   80   87 1   
    84   81   82 2   
    85   81   93 1   
    86   83   84 1   
    87   83   85 1   
    88   83   88 1   
    89   84   90 1   
    90   84   91 1   
    91   84   92 1   
    92   85   89 1   
    93   93   94 1   
    94   93  101 1   
    95   94   95 1   
    96   94   97 1   
    97   94  102 1   
    98   95   96 2   
    99   95  112 1   
   100   97   98 1   
   101   97   99 1   
   102   97  103 1   
   103   98  100 1   
   104   98  104 1   
   105   98  105 1   
   106   99  106 1   
   107   99  107 1   
   108   99  108 1   
   109  100  109 1   
   110  100  110 1   
   111  100  111 1   
   112  112  113 1   
   113  112  119 1   
   114  113  114 1   
   115  113  116 1   
   116  113  120 1   
   117  114  115 2   
   118  114  126 1   
   119  116  117 1   
   120  116  118 1   
   121  116  121 1   
   122  117  123 1   
   123  117  124 1   
   124  117  125 1   
   125  118  122 1   
   126  126  127 1   
   127  126  133 1   
   128  127  128 1   
   129  127  130 1   
   130  127  134 1   
   131  128  129 2   
   132  128  140 1   
   133  130  131 1   
   134  130  132 1   
   135  130  135 1   
   136  131  137 1   
   137  131  138 1   
   138  131  139 1   
   139  132  136 1   
   140  140  141 1   
   141  140  149 1   
   142  141  142 1   
   143  141  144 1   
   144  141  150 1   
   145  142  143 2   
   146  142  162 1   
   147  144  145 1   
   148  144  151 1   
   149  144  152 1   
   150  145  146 1   
   151  145  153 1   
   152  145  154 1   
   153  146  147 1   
   154  146  155 1   
   155  146  156 1   
   156  147  148 1   
   157  147  157 1   
   158  147  158 1   
   159  148  159 1   
   160  148  160 1   
   161  148  161 1   
   162  162  163 1   
   163  162  171 1   
   164  163  164 1   
   165  163  166 1   
   166  163  172 1   
   167  164  165 2   
   168  164  177 1   
   169  166  167 1   
   170  166  173 1   
   171  166  174 1   
   172  167  168 1   
   173  167  175 1   
   174  167  176 1   
   175  168  169 1   
   176  168  170 1   
   177  177  178 1   
   178  177  182 1   
   179  178  179 1   
   180  178  180 1   
   181  178  181 1   
   182  184  185 1   
   183  184  186 1   
   184  187  188 1   
   185  187  189 1   
   186  190  191 1   
   187  190  192 1   
@<TRIPOS>SUBSTRUCTURE
     1 MOL         1 TEMP              0 ****  ****    0 ROOT
