@<TRIPOS>MOLECULE
MOL
  192   187     1     0     0
SMALL
resp


@<TRIPOS>ATOM
      1 C1         -3.9830   -5.2780   -2.0010 c3        1 MOL     -0.338346
      2 C2         -4.8540   -4.2470   -1.2320 c         1 MOL      0.853121
      3 O1         -4.2750   -3.5250   -0.4290 o         1 MOL     -0.722537
      4 H1         -3.1420   -5.5800   -1.3760 hc        1 MOL      0.080787
      5 H2         -4.5860   -6.1530   -2.2470 hc        1 MOL      0.080787
      6 H3         -3.6080   -4.8250   -2.9190 hc        1 MOL      0.080787
      7 N1         -6.1750   -4.1010   -1.4160 n         1 MOL     -0.762843
      8 C3         -7.0130   -2.8740   -1.1840 c3        1 MOL      0.155472
      9 C4         -6.2030   -1.5360   -1.3540 c         1 MOL      0.299897
     10 O2         -5.6860   -0.9710   -0.3900 o         1 MOL     -0.369453
     11 C5         -7.9530   -3.0140    0.0710 c3        1 MOL     -0.007765
     12 C6         -7.4280   -3.7230    1.3590 c         1 MOL      0.670749
     13 O3         -6.2470   -3.5020    1.6250 o         1 MOL     -0.715275
     14 O4         -8.1990   -4.4020    2.0650 o         1 MOL     -0.715275
     15 H4         -6.7040   -4.8890   -1.7900 hn        1 MOL      0.348371
     16 H5         -7.6960   -2.7990   -2.0320 h1        1 MOL      0.044061
     17 H6         -8.9050   -3.4560   -0.2410 hc        1 MOL     -0.011397
     18 H7         -8.2650   -2.0130    0.3570 hc        1 MOL     -0.011397
     19 N2         -5.8410   -1.1480   -2.5650 n         1 MOL     -0.352213
     20 C7         -5.0600    0.0480   -2.9410 c3        1 MOL      0.061423
     21 C8         -5.7390    1.4320   -2.6190 c         1 MOL      0.320240
     22 O5         -5.7660    2.2800   -3.4350 o         1 MOL     -0.520364
     23 C9         -3.4910   -0.0610   -2.6110 c3        1 MOL      0.183730
     24 C10        -2.6830    1.2530   -2.8290 c3        1 MOL     -0.501450
     25 C11        -2.8420   -1.3000   -3.3500 c3        1 MOL     -0.276627
     26 C12        -2.5370    1.5130   -4.3220 c3        1 MOL     -0.343264
     27 H8         -6.3870   -1.5310   -3.3250 hn        1 MOL      0.269214
     28 H9         -5.1050    0.0270   -4.0260 h1        1 MOL      0.063898
     29 H10        -3.5690   -0.3290   -1.5540 hc        1 MOL     -0.181344
     30 H11        -1.6750    1.1430   -2.4360 hc        1 MOL      0.244924
     31 H12        -3.1310    2.1440   -2.3820 hc        1 MOL      0.244924
     32 H13        -3.1470   -2.1720   -2.7720 hc        1 MOL      0.081512
     33 H14        -3.2410   -1.3270   -4.3600 hc        1 MOL      0.081512
     34 H15        -1.7610   -1.2280   -3.4060 hc        1 MOL      0.081512
     35 H16        -2.0430    2.4850   -4.4490 hc        1 MOL      0.099628
     36 H17        -1.8960    0.7460   -4.7670 hc        1 MOL      0.099628
     37 H18        -3.5270    1.4730   -4.7770 hc        1 MOL      0.099628
     38 N3         -6.2040    1.6710   -1.3540 n         1 MOL      0.174295
     39 C13        -7.1430    2.7410   -1.0320 c3        1 MOL     -0.017784
     40 C14        -6.6580    4.1940   -1.3210 c         1 MOL      0.606242
     41 O6         -7.3830    5.0380   -1.8070 o         1 MOL     -0.579580
     42 C15        -7.7350    2.4760    0.3530 c3        1 MOL     -0.144515
     43 C16        -8.3760    1.1020    0.3730 c         1 MOL      0.759480
     44 O7         -8.5220    0.5610    1.4740 o         1 MOL     -0.714064
     45 O8         -8.7860    0.6240   -0.6850 o         1 MOL     -0.714064
     46 H19        -6.1800    0.8370   -0.7930 hn        1 MOL     -0.003734
     47 H20        -7.9150    2.7210   -1.8100 h1        1 MOL      0.020996
     48 H21        -8.4510    3.2600    0.6170 hc        1 MOL      0.016410
     49 H22        -6.9120    2.4880    1.0620 hc        1 MOL      0.016410
     50 N4         -5.3600    4.5050   -1.1480 n         1 MOL     -0.547720
     51 C17        -4.4540    4.0210   -0.1420 c3        1 MOL      0.098098
     52 C18        -4.9710    4.0610    1.3600 c         1 MOL      0.463728
     53 O9         -5.9580    4.7560    1.7150 o         1 MOL     -0.534849
     54 H23        -5.1660    5.4850   -1.3210 hn        1 MOL      0.286710
     55 H24        -3.4910    4.5320   -0.1910 h1        1 MOL      0.036384
     56 H25        -4.2200    2.9720   -0.3380 h1        1 MOL      0.036384
     57 N5         -4.1780    3.5430    2.2920 n         1 MOL     -0.407438
     58 C19        -2.7870    3.0850    2.1210 c3        1 MOL      0.052417
     59 C20        -2.7060    1.6680    1.4870 c         1 MOL      0.410554
     60 O10        -3.7060    0.9220    1.5220 o         1 MOL     -0.511321
     61 C21        -2.0270    3.1460    3.5130 c3        1 MOL     -0.375245
     62 C22        -2.3040    4.3750    4.4170 c         1 MOL      0.708541
     63 O11        -2.9920    4.2410    5.4680 o         1 MOL     -0.711365
     64 O12        -1.8410    5.5080    4.0030 o         1 MOL     -0.711365
     65 H26        -4.5540    3.5780    3.2250 hn        1 MOL      0.330089
     66 H27        -2.4010    3.8380    1.4380 h1        1 MOL      0.077098
     67 H28        -0.9360    3.1070    3.4580 hc        1 MOL      0.082129
     68 H29        -2.3950    2.3110    4.1100 hc        1 MOL      0.082129
     69 N6         -1.5290    1.1610    0.9840 n         1 MOL     -0.081981
     70 C23        -0.1800    1.6930    1.0360 c3        1 MOL     -0.346296
     71 C24         0.0320    2.9200    0.1090 c         1 MOL      0.685490
     72 O13        -0.9120    3.2300   -0.6200 o         1 MOL     -0.533376
     73 H30        -1.4890    0.1980    0.6730 hn        1 MOL      0.156885
     74 H31         0.5300    0.8900    0.8340 h1        1 MOL      0.112512
     75 H32         0.0710    1.7850    2.1020 h1        1 MOL      0.112512
     76 N7          1.2640    3.4790    0.0960 n         1 MOL     -0.516358
     77 C25         1.7090    4.5760   -0.7640 c3        1 MOL     -0.188095
     78 C26         2.5630    4.1280   -1.9300 c         1 MOL      0.411934
     79 O14         3.2890    4.9710   -2.5780 o         1 MOL     -0.498241
     80 C27         2.5850    5.5910    0.1170 c3        1 MOL      0.228770
     81 C28         3.9360    5.1390    0.5980 c3        1 MOL     -0.084736
     82 C29         4.5680    6.1770    1.5500 c         1 MOL      0.508329
     83 N8          4.1960    6.2220    2.7870 n         1 MOL     -0.689911
     84 O15         5.2710    7.0450    1.1100 o         1 MOL     -0.519531
     85 H33         1.9570    3.1480    0.7610 hn        1 MOL      0.282257
     86 H34         0.8500    5.1190   -1.1530 h1        1 MOL      0.179932
     87 H35         2.0230    5.9050    1.0010 hc        1 MOL      0.001930
     88 H36         2.6410    6.5280   -0.4420 hc        1 MOL      0.001930
     89 H37         4.6150    5.1260   -0.2540 hc        1 MOL      0.005353
     90 H38         3.9030    4.1590    1.0800 hc        1 MOL      0.005353
     91 H39         3.5420    5.5760    3.2060 hn        1 MOL      0.341924
     92 H40         4.7660    6.8200    3.3610 hn        1 MOL      0.341924
     93 N9          2.6460    2.7920   -2.2780 n         1 MOL     -0.165060
     94 C30         3.3000    2.1700   -3.4740 c3        1 MOL     -0.205322
     95 C31         4.7590    1.9000   -3.2490 c         1 MOL      0.584755
     96 O16         5.5060    1.8870   -4.2110 o         1 MOL     -0.550687
     97 C32         2.5430    0.9770   -3.9850 c3        1 MOL      0.129278
     98 C33         1.0360    1.1630   -4.2870 c3        1 MOL     -0.087228
     99 C34         2.7020   -0.2290   -3.0400 c3        1 MOL     -0.087228
    100 H41         2.2150    2.1290   -1.6440 hn        1 MOL      0.185785
    101 H42         3.3400    2.9840   -4.1860 h1        1 MOL      0.134782
    102 H43         2.9800    0.6930   -4.9490 hc        1 MOL      0.021599
    103 H44         0.5330    1.3730   -3.3430 hc        1 MOL      0.015813
    104 H45         0.8450    1.9530   -5.0070 hc        1 MOL      0.015813
    105 H46         0.6260    0.2550   -4.7420 hc        1 MOL      0.015813
    106 H47         3.7580   -0.5040   -3.0640 hc        1 MOL      0.015813
    107 H48         2.2910   -0.0260   -2.0470 hc        1 MOL      0.015813
    108 H49         2.2080   -1.0780   -3.5140 hc        1 MOL      0.015813
    109 N10         5.1680    1.7100   -2.0060 n         1 MOL     -0.426466
    110 C35         6.5680    1.6000   -1.6030 c3        1 MOL      0.271521
    111 C36         6.9220    0.1850   -1.0610 c         1 MOL      0.423421
    112 O17         8.0640   -0.2650   -1.2140 o         1 MOL     -0.508587
    113 C37         6.7960    2.6250   -0.4900 c3        1 MOL     -0.474440
    114 C38         7.0740    4.0350   -1.0550 c         1 MOL      0.740482
    115 N11         7.3820    4.9660   -0.1830 n         1 MOL     -0.826233
    116 O18         7.1590    4.2320   -2.2630 o         1 MOL     -0.507565
    117 H50         4.4350    1.7820   -1.3100 hn        1 MOL      0.238612
    118 H51         7.3180    1.7000   -2.3800 h1        1 MOL      0.061113
    119 H52         7.6490    2.3100    0.1160 hc        1 MOL      0.130924
    120 H53         5.9870    2.5890    0.2410 hc        1 MOL      0.130924
    121 H54         7.4590    4.7130    0.7900 hn        1 MOL      0.367416
    122 H55         7.8230    5.8370   -0.4390 hn        1 MOL      0.367416
    123 N12         5.9660   -0.4790   -0.3850 n         1 MOL     -0.405429
    124 C39         6.0560   -1.8340    0.1490 c3        1 MOL      0.342347
    125 C40         4.6920   -2.5640    0.3130 c         1 MOL      0.145351
    126 O19         3.5990   -2.0200    0.1320 o         1 MOL     -0.370648
    127 C41         6.8120   -1.7890    1.4880 c3        1 MOL     -0.060323
    128 C42         8.3500   -1.6400    1.5620 ca        1 MOL     -0.157268
    129 C43         9.1550   -2.5410    0.9110 ca        1 MOL      0.005723
    130 C44         8.8840   -0.4140    2.0340 ca        1 MOL      0.005723
    131 C45        10.5600   -2.3560    0.8770 ca        1 MOL     -0.350333
    132 C46        10.2690   -0.2090    2.0070 ca        1 MOL     -0.350333
    133 C47        11.1150   -1.2000    1.4280 ca        1 MOL      0.414506
    134 O20        12.4340   -1.0060    1.4160 oh        1 MOL     -0.493471
    135 H56         5.0720   -0.0180   -0.2350 hn        1 MOL      0.207522
    136 H57         6.6490   -2.4230   -0.5400 h1        1 MOL     -0.001782
    137 H58         6.6570   -2.8040    1.8480 hc        1 MOL      0.070235
    138 H59         6.3440   -1.1020    2.1870 hc        1 MOL      0.070235
    139 H60         8.7130   -3.4480    0.5470 ha        1 MOL      0.086917
    140 H61         8.2370    0.2970    2.5090 ha        1 MOL      0.086917
    141 H62        11.2920   -3.0250    0.4400 ha        1 MOL      0.147518
    142 H63        10.7730    0.7110    2.2660 ha        1 MOL      0.147518
    143 H64        12.9060   -1.7810    1.1030 ho        1 MOL      0.349358
    144 N13         4.7190   -3.8630    0.6440 n         1 MOL     -0.335363
    145 C48         3.6510   -4.7460    1.1230 c3        1 MOL     -0.280517
    146 C49         2.6490   -5.1200    0.0320 c         1 MOL      0.419735
    147 O21         2.0810   -6.2200    0.0780 o         1 MOL     -0.504165
    148 C50         3.0190   -4.2960    2.4730 c3        1 MOL      0.588740
    149 C51         4.0330   -3.7280    3.4620 c3        1 MOL     -0.314319
    150 C52         3.4240   -3.3120    4.8210 c         1 MOL      0.698798
    151 O22         4.2340   -3.0260    5.7950 o         1 MOL     -0.724021
    152 O23         2.1700   -3.3630    4.9740 o         1 MOL     -0.724021
    153 H65         5.6310   -4.2910    0.6470 hn        1 MOL      0.296578
    154 H66         4.1720   -5.6800    1.3530 h1        1 MOL      0.084410
    155 H67         2.5010   -5.1530    2.8980 hc        1 MOL     -0.090952
    156 H68         2.1800   -3.6510    2.2570 hc        1 MOL     -0.090952
    157 H69         4.4130   -2.8090    3.0070 hc        1 MOL      0.005873
    158 H70         4.8380   -4.4330    3.6420 hc        1 MOL      0.005873
    159 N14         2.2830   -4.1230   -0.7520 n         1 MOL     -0.136726
    160 C53         1.0200   -4.3360   -1.5490 c3        1 MOL     -0.035497
    161 C54         1.3620   -5.2790   -2.7520 c         1 MOL      0.404282
    162 O24         0.6160   -6.1860   -3.1280 o         1 MOL     -0.515867
    163 C55         0.3930   -3.0710   -1.9310 c3        1 MOL      0.069210
    164 C56         0.1170   -2.0180   -0.8700 c3        1 MOL      0.070208
    165 C57        -0.9880   -2.3820    0.0900 c         1 MOL      0.851019
    166 O25        -1.9990   -1.6140    0.1830 o         1 MOL     -0.687195
    167 O26        -0.9890   -3.4430    0.7170 o         1 MOL     -0.687195
    168 H71         2.5740   -3.1750   -0.5720 hn        1 MOL      0.216306
    169 H72         0.3040   -4.8430   -0.8990 h1        1 MOL      0.113638
    170 H73        -0.5170   -3.2800   -2.4970 hc        1 MOL     -0.021634
    171 H74         1.1480   -2.6160   -2.5690 hc        1 MOL     -0.021634
    172 H75        -0.1360   -1.0240   -1.2260 hc        1 MOL     -0.089272
    173 H76         1.0740   -1.9200   -0.3700 hc        1 MOL     -0.089272
    174 N15         2.6300   -5.2510   -3.1740 n         1 MOL     -0.252447
    175 C58         3.3710   -6.3400   -3.8000 c3        1 MOL     -0.226463
    176 H77         4.1160   -6.7210   -3.1000 h1        1 MOL      0.103039
    177 H78         2.6830   -7.1420   -4.0680 h1        1 MOL      0.103039
    178 H79         3.8690   -5.9730   -4.6970 h1        1 MOL      0.103039
    179 H80         3.1200   -4.5040   -2.6960 hn        1 MOL      0.175281
    180 Ca1        -4.1770   -1.7010    1.6800 Ca        1 MOL      1.798886
    181 O27        -6.2420   -0.3370    2.6500 oh        1 MOL     -0.850999
    182 H81        -6.4670    0.3700    3.2500 ho        1 MOL      0.408670
    183 H82        -6.9600   -0.3530    2.0150 ho        1 MOL      0.408670
    184 O28        -2.0400   -0.9000    3.3270 oh        1 MOL     -0.850999
    185 H83        -1.1760   -1.3060    3.4050 ho        1 MOL      0.408670
    186 H84        -2.1780   -0.4660    4.1640 ho        1 MOL      0.408670
    187 O29        -4.7180   -2.6380    4.2550 oh        1 MOL     -0.850999
    188 H85        -4.3120   -3.4960    4.4250 ho        1 MOL      0.408670
    189 H86        -5.2850   -2.4980    5.0210 ho        1 MOL      0.408670
    190 O30        -3.0360   -3.9430    2.1590 oh        1 MOL     -0.850999
    191 H87        -3.5150   -4.7180    1.8770 ho        1 MOL      0.408670
    192 H88        -2.2860   -3.9000    1.5730 ho        1 MOL      0.408670
@<TRIPOS>BOND
     1    1    2 1   
     2    1    4 1   
     3    1    5 1   
     4    1    6 1   
     5    2    3 2   
     6    2    7 1   
     7    7    8 1   
     8    7   15 1   
     9    8    9 1   
    10    8   11 1   
    11    8   16 1   
    12    9   10 2   
    13    9   19 1   
    14   11   12 1   
    15   11   17 1   
    16   11   18 1   
    17   12   13 1   
    18   12   14 1   
    19   19   20 1   
    20   19   27 1   
    21   20   21 1   
    22   20   23 1   
    23   20   28 1   
    24   21   22 2   
    25   21   38 1   
    26   23   24 1   
    27   23   25 1   
    28   23   29 1   
    29   24   26 1   
    30   24   30 1   
    31   24   31 1   
    32   25   32 1   
    33   25   33 1   
    34   25   34 1   
    35   26   35 1   
    36   26   36 1   
    37   26   37 1   
    38   38   39 1   
    39   38   46 1   
    40   39   40 1   
    41   39   42 1   
    42   39   47 1   
    43   40   41 2   
    44   40   50 1   
    45   42   43 1   
    46   42   48 1   
    47   42   49 1   
    48   43   44 1   
    49   43   45 1   
    50   50   51 1   
    51   50   54 1   
    52   51   52 1   
    53   51   55 1   
    54   51   56 1   
    55   52   53 2   
    56   52   57 1   
    57   57   58 1   
    58   57   65 1   
    59   58   59 1   
    60   58   61 1   
    61   58   66 1   
    62   59   60 2   
    63   59   69 1   
    64   61   62 1   
    65   61   67 1   
    66   61   68 1   
    67   62   63 1   
    68   62   64 1   
    69   69   70 1   
    70   69   73 1   
    71   70   71 1   
    72   70   74 1   
    73   70   75 1   
    74   71   72 2   
    75   71   76 1   
    76   76   77 1   
    77   76   85 1   
    78   77   78 1   
    79   77   80 1   
    80   77   86 1   
    81   78   79 2   
    82   78   93 1   
    83   80   81 1   
    84   80   87 1   
    85   80   88 1   
    86   81   82 1   
    87   81   89 1   
    88   81   90 1   
    89   82   83 1   
    90   82   84 2   
    91   83   91 1   
    92   83   92 1   
    93   93   94 1   
    94   93  100 1   
    95   94   95 1   
    96   94   97 1   
    97   94  101 1   
    98   95   96 2   
    99   95  109 1   
   100   97   98 1   
   101   97   99 1   
   102   97  102 1   
   103   98  103 1   
   104   98  104 1   
   105   98  105 1   
   106   99  106 1   
   107   99  107 1   
   108   99  108 1   
   109  109  110 1   
   110  109  117 1   
   111  110  111 1   
   112  110  113 1   
   113  110  118 1   
   114  111  112 2   
   115  111  123 1   
   116  113  114 1   
   117  113  119 1   
   118  113  120 1   
   119  114  115 1   
   120  114  116 2   
   121  115  121 1   
   122  115  122 1   
   123  123  124 1   
   124  123  135 1   
   125  124  125 1   
   126  124  127 1   
   127  124  136 1   
   128  125  126 2   
   129  125  144 1   
   130  127  128 1   
   131  127  137 1   
   132  127  138 1   
   133  128  129 ar  
   134  128  130 ar  
   135  129  131 ar  
   136  129  139 1   
   137  130  132 ar  
   138  130  140 1   
   139  131  133 ar  
   140  131  141 1   
   141  132  133 ar  
   142  132  142 1   
   143  133  134 1   
   144  134  143 1   
   145  144  145 1   
   146  144  153 1   
   147  145  146 1   
   148  145  148 1   
   149  145  154 1   
   150  146  147 2   
   151  146  159 1   
   152  148  149 1   
   153  148  155 1   
   154  148  156 1   
   155  149  150 1   
   156  149  157 1   
   157  149  158 1   
   158  150  151 1   
   159  150  152 1   
   160  159  160 1   
   161  159  168 1   
   162  160  161 1   
   163  160  163 1   
   164  160  169 1   
   165  161  162 2   
   166  161  174 1   
   167  163  164 1   
   168  163  170 1   
   169  163  171 1   
   170  164  165 1   
   171  164  172 1   
   172  164  173 1   
   173  165  166 1   
   174  165  167 1   
   175  174  175 1   
   176  174  179 1   
   177  175  176 1   
   178  175  177 1   
   179  175  178 1   
   180  181  182 1   
   181  181  183 1   
   182  184  185 1   
   183  184  186 1   
   184  187  188 1   
   185  187  189 1   
   186  190  191 1   
   187  190  192 1   
@<TRIPOS>SUBSTRUCTURE
     1 MOL         1 TEMP              0 ****  ****    0 ROOT
