@<TRIPOS>MOLECULE
MOL
  178   175     1     0     0
SMALL
resp


@<TRIPOS>ATOM
      1 C1          4.7610   -2.1090    2.7970 c3        1 MOL     -0.276308
      2 C2          6.0550   -1.2030    2.5580 c         1 MOL      0.596061
      3 O1          6.0260   -0.1370    1.9710 o         1 MOL     -0.540374
      4 H1          3.8750   -1.5730    2.4560 hc        1 MOL      0.076954
      5 H2          4.8590   -3.0390    2.2380 hc        1 MOL      0.076954
      6 H3          4.6640   -2.3320    3.8590 hc        1 MOL      0.076954
      7 N1          7.1930   -1.7070    3.1070 n         1 MOL     -0.457456
      8 C3          8.5230   -1.1300    2.8670 c3        1 MOL      0.025477
      9 C4          8.7580   -1.4320    1.3980 c         1 MOL      0.626367
     10 O2          8.7410   -2.5840    1.0240 o         1 MOL     -0.560225
     11 C5          9.5410   -1.8040    3.7710 c3        1 MOL     -0.338973
     12 C6         10.9920   -1.5530    3.3900 c         1 MOL      0.795925
     13 O3         11.3950   -0.3570    3.1910 o         1 MOL     -0.746893
     14 O4         11.7670   -2.4960    3.3700 o         1 MOL     -0.746893
     15 H4          7.1000   -2.6410    3.4960 hn        1 MOL      0.273446
     16 H5          8.5650   -0.0540    3.0330 h1        1 MOL      0.062394
     17 H6          9.4290   -2.8790    3.8880 hc        1 MOL      0.075048
     18 H7          9.3780   -1.5590    4.8220 hc        1 MOL      0.075048
     19 N2          9.0300   -0.4120    0.5790 n         1 MOL     -0.479085
     20 C7          9.2760   -0.5850   -0.8810 c3        1 MOL      0.242477
     21 C8          7.9700   -0.7330   -1.7480 c         1 MOL      0.221777
     22 O5          8.0420   -1.0620   -2.9550 o         1 MOL     -0.500647
     23 C9         10.0770    0.6720   -1.2740 c3        1 MOL     -0.282162
     24 H8          9.1360    0.5140    0.9670 hn        1 MOL      0.268696
     25 H9          9.8600   -1.4850   -1.0410 h1        1 MOL      0.090063
     26 H10        10.4460    0.5760   -2.2990 hc        1 MOL      0.075854
     27 H11         9.4010    1.5020   -1.1060 hc        1 MOL      0.075854
     28 H12        10.9370    0.7800   -0.6120 hc        1 MOL      0.075854
     29 N3          6.7770   -0.6180   -1.1480 n         1 MOL     -0.084792
     30 C10         5.4330   -0.9670   -1.6730 c3        1 MOL      0.116379
     31 C11         4.9710   -0.0920   -2.8840 c         1 MOL      0.632247
     32 O6          4.5910   -0.5250   -3.9550 o         1 MOL     -0.529186
     33 C12         5.2250   -2.4550   -1.8670 c3        1 MOL     -0.040110
     34 C13         3.7300   -2.9040   -1.7970 c         1 MOL      0.599979
     35 O7          3.3810   -3.9600   -2.3880 o         1 MOL     -0.718535
     36 O8          2.8830   -2.2670   -1.1280 o         1 MOL     -0.718535
     37 H13         6.8740   -0.4610   -0.1530 hn        1 MOL      0.073390
     38 H14         4.7740   -0.7570   -0.8360 h1        1 MOL     -0.012914
     39 H15         5.7610   -3.0770   -1.1620 hc        1 MOL      0.014769
     40 H16         5.7230   -2.6620   -2.8140 hc        1 MOL      0.014769
     41 N4          5.1950    1.2230   -2.6590 n         1 MOL     -0.446678
     42 C14         5.2400    2.2480   -3.7030 c3        1 MOL     -0.111802
     43 C15         3.9860    3.1440   -3.9550 c         1 MOL      0.552761
     44 O9          4.0540    4.1960   -4.6230 o         1 MOL     -0.576147
     45 H17         5.6290    1.4770   -1.7850 hn        1 MOL      0.254524
     46 H18         5.5070    1.7490   -4.6360 h1        1 MOL      0.094130
     47 H19         6.0710    2.8950   -3.4160 h1        1 MOL      0.094130
     48 N5          2.8440    2.7420   -3.3090 n         1 MOL     -0.315607
     49 C16         1.6170    3.5670   -3.2450 c3        1 MOL     -0.043664
     50 C17         1.6180    4.6200   -2.1280 c         1 MOL      0.610430
     51 O10         2.0930    4.4210   -1.0360 o         1 MOL     -0.530017
     52 C18         0.3680    2.6360   -2.9360 c3        1 MOL     -0.297080
     53 C19        -0.9850    3.3690   -3.0730 c         1 MOL      0.547879
     54 N6         -1.6680    3.8020   -2.0280 n         1 MOL     -0.670379
     55 O11        -1.4500    3.5490   -4.2070 o         1 MOL     -0.573391
     56 H20         2.9400    1.8510   -2.8350 hn        1 MOL      0.213702
     57 H21         1.4830    4.1210   -4.1710 h1        1 MOL      0.080818
     58 H22         0.4680    2.2970   -1.9070 hc        1 MOL      0.167127
     59 H23         0.3250    1.7620   -3.5840 hc        1 MOL      0.167127
     60 H24        -1.4400    3.4970   -1.0920 hn        1 MOL      0.336433
     61 H25        -2.5090    4.3360   -2.1570 hn        1 MOL      0.336433
     62 N7          0.9810    5.7690   -2.4500 n         1 MOL     -0.490362
     63 C20         0.7140    6.8550   -1.4910 c3        1 MOL      0.048235
     64 C21        -0.6390    6.8740   -0.7720 c         1 MOL      0.487112
     65 O12        -1.7190    6.8230   -1.4000 o         1 MOL     -0.503984
     66 H26         0.6120    5.8490   -3.3940 hn        1 MOL      0.319742
     67 H27         0.8630    7.8360   -1.9510 h1        1 MOL      0.052879
     68 H28         1.5030    6.8150   -0.7420 h1        1 MOL      0.052879
     69 N8         -0.6230    6.9610    0.5380 n         1 MOL     -0.499189
     70 C22        -1.8660    7.1870    1.3510 c3        1 MOL     -0.011170
     71 C23        -2.5550    5.9350    1.8600 c         1 MOL      0.381255
     72 O13        -3.7640    6.0320    2.1040 o         1 MOL     -0.566125
     73 C24        -1.5660    7.9760    2.6340 c3        1 MOL      0.468063
     74 C25        -0.5680    7.5610    3.8280 c3        1 MOL     -0.389431
     75 O14        -1.1390    9.2260    2.1590 oh        1 MOL     -0.646738
     76 H29         0.2440    7.0610    1.0420 hn        1 MOL      0.284355
     77 H30        -2.5480    7.8290    0.8050 h1        1 MOL      0.129495
     78 H31        -2.5290    8.2210    3.0790 h1        1 MOL      0.027579
     79 H32        -0.2110    9.1350    1.9200 ho        1 MOL      0.361978
     80 H33        -1.1270    7.0540    4.6100 hc        1 MOL      0.097053
     81 H34         0.2740    6.9660    3.4910 hc        1 MOL      0.097053
     82 H35        -0.2120    8.4920    4.2630 hc        1 MOL      0.097053
     83 N9         -1.9480    4.7960    1.8450 n         1 MOL     -0.148464
     84 C26        -2.4420    3.4440    2.1780 c3        1 MOL      0.026039
     85 C27        -1.7900    2.4050    1.2660 c         1 MOL      0.280704
     86 O15        -0.8110    2.6160    0.5450 o         1 MOL     -0.467450
     87 C28        -2.3040    3.1050    3.6480 c3        1 MOL     -0.039981
     88 C29        -0.8320    3.0480    4.0920 c3        1 MOL      0.053397
     89 C30        -3.0160    4.1390    4.5180 c3        1 MOL     -0.206135
     90 C31        -0.0920    1.7840    3.6540 c3        1 MOL     -0.182244
     91 H36        -0.9390    4.7800    1.7290 hn        1 MOL      0.217099
     92 H37        -3.5290    3.3760    2.1070 h1        1 MOL      0.100562
     93 H38        -2.7060    2.1310    3.9080 hc        1 MOL      0.054468
     94 H39        -0.6790    3.0450    5.1670 hc        1 MOL     -0.002963
     95 H40        -0.3020    3.9530    3.7970 hc        1 MOL     -0.002963
     96 H41        -2.9330    3.9130    5.5830 hc        1 MOL      0.055199
     97 H42        -2.7050    5.1620    4.3480 hc        1 MOL      0.055199
     98 H43        -4.0900    4.0380    4.3280 hc        1 MOL      0.055199
     99 H44         0.2990    1.9170    2.6440 hc        1 MOL      0.059462
    100 H45         0.7700    1.6440    4.3150 hc        1 MOL      0.059462
    101 H46        -0.7280    0.9070    3.5990 hc        1 MOL      0.059462
    102 N10        -2.4250    1.2360    1.2230 n         1 MOL     -0.309180
    103 C32        -2.0770    0.1340    0.3070 c3        1 MOL      0.168514
    104 C33        -3.3960   -0.4680   -0.2710 c         1 MOL      0.567829
    105 O16        -3.5030   -1.7130   -0.2250 o         1 MOL     -0.498779
    106 C34        -1.0530   -0.7870    0.8500 c3        1 MOL     -0.244127
    107 C35        -0.5640   -1.9130   -0.0370 c         1 MOL      0.675719
    108 O17        -0.4050   -1.6340   -1.2400 o         1 MOL     -0.684453
    109 O18        -0.1210   -2.9160    0.5330 o         1 MOL     -0.684453
    110 H47        -3.3760    1.2430    1.5560 hn        1 MOL      0.227618
    111 H48        -1.6050    0.5910   -0.5650 h1        1 MOL      0.016187
    112 H49        -1.4990   -1.2450    1.7330 hc        1 MOL      0.079221
    113 H50        -0.1940   -0.1250    0.9510 hc        1 MOL      0.079221
    114 N11        -4.4420    0.3730   -0.6350 n         1 MOL     -0.659107
    115 C36        -5.7570   -0.2090   -1.0790 c3        1 MOL      0.649227
    116 C37        -6.3360   -1.1030   -0.0020 c         1 MOL     -0.030662
    117 O19        -6.1490   -0.8330    1.2240 o         1 MOL     -0.474875
    118 C38        -6.7010    0.9900   -1.3260 c3        1 MOL     -0.364967
    119 C39        -8.2260    0.6260   -1.5310 ca        1 MOL      0.086064
    120 C40        -8.7050    0.5260   -2.8100 ca        1 MOL     -0.142076
    121 C41        -8.9990    0.2870   -0.4150 ca        1 MOL     -0.142076
    122 C42       -10.0740    0.2260   -3.0080 ca        1 MOL     -0.139640
    123 C43       -10.3560   -0.1460   -0.5520 ca        1 MOL     -0.139640
    124 C44       -10.8760   -0.1140   -1.8450 ca        1 MOL     -0.083490
    125 H51        -4.3680    1.3500   -0.3940 hn        1 MOL      0.277493
    126 H52        -5.5840   -0.6770   -2.0420 h1        1 MOL     -0.050335
    127 H53        -6.3460    1.4090   -2.2720 hc        1 MOL      0.121845
    128 H54        -6.6220    1.7150   -0.5180 hc        1 MOL      0.121845
    129 H55        -8.0500    0.6800   -3.6620 ha        1 MOL      0.128203
    130 H56        -8.6460    0.2500    0.6040 ha        1 MOL      0.128203
    131 H57       -10.4940    0.2220   -4.0050 ha        1 MOL      0.121409
    132 H58       -10.9810   -0.4300    0.2860 ha        1 MOL      0.121409
    133 H59       -11.9330   -0.2970   -1.9470 ha        1 MOL      0.089387
    134 N12        -6.8800   -2.3080   -0.3110 n         1 MOL      0.206268
    135 C45        -7.4500   -3.3260    0.6610 c3        1 MOL     -0.041513
    136 C46        -6.4250   -4.0520    1.5070 c         1 MOL      0.198065
    137 O20        -6.8230   -4.7070    2.4840 o         1 MOL     -0.501964
    138 C47        -8.2980   -4.3040   -0.1740 c3        1 MOL      0.009656
    139 C48        -8.1710   -3.8860   -1.6380 c3        1 MOL      0.025084
    140 C49        -7.0440   -2.8630   -1.6430 c3        1 MOL      0.023493
    141 H60        -8.2670   -2.8050    1.1420 h1        1 MOL      0.095216
    142 H61        -8.0010   -5.3500   -0.0700 hc        1 MOL      0.028863
    143 H62        -9.3410   -4.3520    0.1490 hc        1 MOL      0.028863
    144 H63        -8.0800   -4.7480   -2.2900 hc        1 MOL     -0.014977
    145 H64        -9.0200   -3.2130   -1.7870 hc        1 MOL     -0.014977
    146 H65        -6.1470   -3.3990   -1.9380 h1        1 MOL     -0.001218
    147 H66        -7.3700   -2.0880   -2.3320 h1        1 MOL     -0.001218
    148 N13        -5.0810   -3.9150    1.2840 n         1 MOL      0.054472
    149 C50        -4.0790   -4.6230    2.0810 c3        1 MOL     -0.229374
    150 C51        -3.6890   -3.9710    3.3860 c         1 MOL      0.397727
    151 O21        -3.1330   -4.6440    4.2690 o         1 MOL     -0.532069
    152 C52        -2.7480   -4.7240    1.3100 c3        1 MOL      0.133712
    153 C53        -2.8940   -5.7560    0.1730 c3        1 MOL     -0.044950
    154 C54        -1.6840   -5.6960   -0.7560 c         1 MOL      0.593598
    155 O22        -1.6840   -5.1610   -1.8830 o         1 MOL     -0.728556
    156 O23        -0.5490   -5.9250   -0.2530 o         1 MOL     -0.728556
    157 H67        -4.7810   -3.2600    0.5640 hn        1 MOL      0.125339
    158 H68        -4.3480   -5.6450    2.3310 h1        1 MOL      0.136638
    159 H69        -1.8830   -5.0070    1.9270 hc        1 MOL      0.011325
    160 H70        -2.5690   -3.7410    0.8890 hc        1 MOL      0.011325
    161 H71        -3.8350   -5.4510   -0.2860 hc        1 MOL     -0.016900
    162 H72        -2.9460   -6.8100    0.4730 hc        1 MOL     -0.016900
    163 N14        -4.1570   -2.7400    3.5720 n         1 MOL     -0.075799
    164 C55        -3.9250   -2.0100    4.8420 c3        1 MOL     -0.236929
    165 H73        -4.8540   -1.5390    5.1660 h1        1 MOL      0.089015
    166 H74        -3.5870   -2.7090    5.6070 h1        1 MOL      0.089015
    167 H75        -3.1650   -1.2430    4.6880 h1        1 MOL      0.089015
    168 H76        -4.7660   -2.3580    2.8590 hn        1 MOL      0.165268
    169 Ca1         0.9930   -4.1270   -1.3980 Ca        1 MOL      1.817685
    170 O24         2.6070   -5.0480    0.5110 oh        1 MOL     -0.884600
    171 H77         3.5430   -5.1890    0.3710 ho        1 MOL      0.425727
    172 H78         2.4900   -5.0790    1.4580 ho        1 MOL      0.425727
    173 O25         0.3170   -3.2290   -3.7520 oh        1 MOL     -0.884600
    174 H79         0.7540   -2.4520   -4.1180 ho        1 MOL      0.425727
    175 H80        -0.1630   -3.6050   -4.5020 ho        1 MOL      0.425727
    176 O26         1.2990   -6.2500   -2.9630 oh        1 MOL     -0.884600
    177 H81         0.5040   -6.4920   -3.4550 ho        1 MOL      0.425727
    178 H82         1.9130   -6.9570   -3.1470 ho        1 MOL      0.425727
@<TRIPOS>BOND
     1    1    2 1   
     2    1    4 1   
     3    1    5 1   
     4    1    6 1   
     5    2    3 2   
     6    2    7 1   
     7    7    8 1   
     8    7   15 1   
     9    8    9 1   
    10    8   11 1   
    11    8   16 1   
    12    9   10 2   
    13    9   19 1   
    14   11   12 1   
    15   11   17 1   
    16   11   18 1   
    17   12   13 1   
    18   12   14 1   
    19   19   20 1   
    20   19   24 1   
    21   20   21 1   
    22   20   23 1   
    23   20   25 1   
    24   21   22 2   
    25   21   29 1   
    26   23   26 1   
    27   23   27 1   
    28   23   28 1   
    29   29   30 1   
    30   29   37 1   
    31   30   31 1   
    32   30   33 1   
    33   30   38 1   
    34   31   32 2   
    35   31   41 1   
    36   33   34 1   
    37   33   39 1   
    38   33   40 1   
    39   34   35 1   
    40   34   36 1   
    41   41   42 1   
    42   41   45 1   
    43   42   43 1   
    44   42   46 1   
    45   42   47 1   
    46   43   44 2   
    47   43   48 1   
    48   48   49 1   
    49   48   56 1   
    50   49   50 1   
    51   49   52 1   
    52   49   57 1   
    53   50   51 2   
    54   50   62 1   
    55   52   53 1   
    56   52   58 1   
    57   52   59 1   
    58   53   54 1   
    59   53   55 2   
    60   54   60 1   
    61   54   61 1   
    62   62   63 1   
    63   62   66 1   
    64   63   64 1   
    65   63   67 1   
    66   63   68 1   
    67   64   65 2   
    68   64   69 1   
    69   69   70 1   
    70   69   76 1   
    71   70   71 1   
    72   70   73 1   
    73   70   77 1   
    74   71   72 2   
    75   71   83 1   
    76   73   74 1   
    77   73   75 1   
    78   73   78 1   
    79   74   80 1   
    80   74   81 1   
    81   74   82 1   
    82   75   79 1   
    83   83   84 1   
    84   83   91 1   
    85   84   85 1   
    86   84   87 1   
    87   84   92 1   
    88   85   86 2   
    89   85  102 1   
    90   87   88 1   
    91   87   89 1   
    92   87   93 1   
    93   88   90 1   
    94   88   94 1   
    95   88   95 1   
    96   89   96 1   
    97   89   97 1   
    98   89   98 1   
    99   90   99 1   
   100   90  100 1   
   101   90  101 1   
   102  102  103 1   
   103  102  110 1   
   104  103  104 1   
   105  103  106 1   
   106  103  111 1   
   107  104  105 2   
   108  104  114 1   
   109  106  107 1   
   110  106  112 1   
   111  106  113 1   
   112  107  108 1   
   113  107  109 1   
   114  114  115 1   
   115  114  125 1   
   116  115  116 1   
   117  115  118 1   
   118  115  126 1   
   119  116  117 2   
   120  116  134 1   
   121  118  119 1   
   122  118  127 1   
   123  118  128 1   
   124  119  120 ar  
   125  119  121 ar  
   126  120  122 ar  
   127  120  129 1   
   128  121  123 ar  
   129  121  130 1   
   130  122  124 ar  
   131  122  131 1   
   132  123  124 ar  
   133  123  132 1   
   134  124  133 1   
   135  134  135 1   
   136  134  140 1   
   137  135  136 1   
   138  135  138 1   
   139  135  141 1   
   140  136  137 2   
   141  136  148 1   
   142  138  139 1   
   143  138  142 1   
   144  138  143 1   
   145  139  140 1   
   146  139  144 1   
   147  139  145 1   
   148  140  146 1   
   149  140  147 1   
   150  148  149 1   
   151  148  157 1   
   152  149  150 1   
   153  149  152 1   
   154  149  158 1   
   155  150  151 2   
   156  150  163 1   
   157  152  153 1   
   158  152  159 1   
   159  152  160 1   
   160  153  154 1   
   161  153  161 1   
   162  153  162 1   
   163  154  155 1   
   164  154  156 1   
   165  163  164 1   
   166  163  168 1   
   167  164  165 1   
   168  164  166 1   
   169  164  167 1   
   170  170  171 1   
   171  170  172 1   
   172  173  174 1   
   173  173  175 1   
   174  176  177 1   
   175  176  178 1   
@<TRIPOS>SUBSTRUCTURE
     1 MOL         1 TEMP              0 ****  ****    0 ROOT
