@<TRIPOS>MOLECULE
MOL
  195   189     1     0     0
SMALL
resp


@<TRIPOS>ATOM
      1 C1          7.9540    8.1540   -1.2900 c3        1 MOL     -0.447156
      2 C2          7.0820    6.8560   -1.4760 c         1 MOL      0.637369
      3 O1          5.8590    6.8790   -1.4140 o         1 MOL     -0.595631
      4 H1          8.0400    8.3840   -0.2280 hc        1 MOL      0.124033
      5 H2          8.9470    7.9890   -1.7070 hc        1 MOL      0.124033
      6 H3          7.4780    8.9890   -1.8030 hc        1 MOL      0.124033
      7 N1          7.7650    5.6500   -1.5640 n         1 MOL     -0.471502
      8 C3          7.1320    4.3740   -1.3870 c3        1 MOL     -0.061319
      9 C4          6.2290    4.2960   -0.1460 c         1 MOL      0.640325
     10 O2          6.7800    4.5080    0.9720 o         1 MOL     -0.529667
     11 C5          8.3430    3.3480   -1.3740 c3        1 MOL     -0.269304
     12 C6          8.0650    1.8640   -1.3110 c         1 MOL      0.780028
     13 O3          8.9020    1.1720   -0.7430 o         1 MOL     -0.698923
     14 O4          7.0610    1.4110   -1.9230 o         1 MOL     -0.698923
     15 H4          8.7740    5.6220   -1.6530 hn        1 MOL      0.300652
     16 H5          6.4940    4.2420   -2.2680 h1        1 MOL      0.036618
     17 H6          8.8850    3.5570   -0.4510 hc        1 MOL      0.081940
     18 H7          9.1280    3.5380   -2.1050 hc        1 MOL      0.081940
     19 N2          4.9520    3.9630   -0.3330 n         1 MOL     -0.281127
     20 C7          3.9340    4.0510    0.7460 c3        1 MOL     -0.113880
     21 C8          4.0400    3.1220    2.0070 c         1 MOL      0.495851
     22 O5          3.5290    3.4840    2.9920 o         1 MOL     -0.523010
     23 C9          2.4910    4.1510    0.1890 c3        1 MOL      0.051806
     24 C10         2.2640    5.4670   -0.5640 c3        1 MOL     -0.040870
     25 C11         0.7310    5.5770   -0.8200 c3        1 MOL     -0.058668
     26 C12         0.3040    6.8760   -1.5160 c3        1 MOL     -0.000108
     27 N3          0.8980    7.2030   -2.8430 n4        1 MOL     -0.398415
     28 H8          4.6540    3.7210   -1.2690 hn        1 MOL      0.206060
     29 H9          4.1220    5.0480    1.1370 h1        1 MOL      0.086162
     30 H10         1.7980    4.0490    1.0250 hc        1 MOL      0.061328
     31 H11         2.2270    3.3100   -0.4380 hc        1 MOL      0.061328
     32 H12         2.7080    5.3710   -1.5570 hc        1 MOL      0.038300
     33 H13         2.6380    6.3580   -0.0570 hc        1 MOL      0.038300
     34 H14         0.1700    5.4160    0.0960 hc        1 MOL      0.049060
     35 H15         0.3240    4.8030   -1.4670 hc        1 MOL      0.049060
     36 H16         0.3100    7.7040   -0.8170 hx        1 MOL      0.093868
     37 H17        -0.7750    6.7590   -1.6350 hx        1 MOL      0.093868
     38 H18         0.8550    6.3370   -3.3520 hn        1 MOL      0.341519
     39 H19         0.3730    7.8570   -3.3960 hn        1 MOL      0.341519
     40 H20         1.8610    7.4710   -2.6950 hn        1 MOL      0.341519
     41 N4          4.4440    1.8400    1.8630 n         1 MOL     -0.317336
     42 C13         4.9670    1.0690    0.7550 c3        1 MOL     -0.038330
     43 C14         5.7910   -0.1270    1.3180 c         1 MOL      0.433370
     44 O6          5.5870   -0.5540    2.4680 o         1 MOL     -0.526313
     45 C15         3.8170    0.4480   -0.0550 c3        1 MOL     -0.492684
     46 C16         3.0380   -0.6450    0.7010 c         1 MOL      0.958232
     47 O7          3.4110   -1.8530    0.6850 o         1 MOL     -0.754994
     48 O8          1.9860   -0.3360    1.3030 o         1 MOL     -0.754994
     49 H21         4.1920    1.2720    2.6540 hn        1 MOL      0.253560
     50 H22         5.7080    1.7170    0.2890 h1        1 MOL      0.095969
     51 H23         4.2540    0.1250   -1.0050 hc        1 MOL      0.109378
     52 H24         3.1620    1.2810   -0.3120 hc        1 MOL      0.109378
     53 N5          6.7550   -0.6200    0.5110 n         1 MOL     -0.079017
     54 C17         7.7780   -1.5630    0.9770 c3        1 MOL     -0.283328
     55 C18         7.3320   -3.0280    1.0770 c         1 MOL      0.425206
     56 O9          8.2800   -3.8600    0.9680 o         1 MOL     -0.537170
     57 H25         6.9890   -0.0810   -0.3050 hn        1 MOL      0.137954
     58 H26         8.1040   -1.2260    1.9530 h1        1 MOL      0.162942
     59 H27         8.6050   -1.5270    0.2650 h1        1 MOL      0.162942
     60 N6          6.0480   -3.4050    1.0570 n         1 MOL     -0.035017
     61 C19         5.5080   -4.7370    0.8650 c3        1 MOL      0.055151
     62 C20         6.1450   -5.6800   -0.2360 c         1 MOL      0.482076
     63 O10         6.8730   -6.6760    0.0690 o         1 MOL     -0.539838
     64 C21         5.3370   -5.4230    2.2370 c3        1 MOL     -0.116806
     65 C22         4.3970   -4.6140    3.1600 c         1 MOL      0.695119
     66 O11         4.8640   -3.9840    4.0920 o         1 MOL     -0.692538
     67 O12         3.1990   -4.5350    2.8620 o         1 MOL     -0.692538
     68 H28         5.3160   -2.7100    1.1420 hn        1 MOL      0.058416
     69 H29         4.4920   -4.4420    0.6180 h1        1 MOL     -0.027325
     70 H30         6.2520   -5.6680    2.7820 hc        1 MOL      0.022244
     71 H31         4.7680   -6.3500    2.1280 hc        1 MOL      0.022244
     72 N7          5.8950   -5.4340   -1.4830 n         1 MOL     -0.391489
     73 C23         5.1840   -4.2760   -2.1650 c3        1 MOL      0.063939
     74 C24         3.7460   -4.6080   -2.4350 c         1 MOL      0.325064
     75 O13         3.3720   -5.4590   -3.2910 o         1 MOL     -0.525900
     76 H32         6.3860   -6.0940   -2.0750 hn        1 MOL      0.281490
     77 H33         5.6380   -4.0330   -3.1310 h1        1 MOL      0.061651
     78 H34         5.2610   -3.3250   -1.6310 h1        1 MOL      0.061651
     79 N8          2.8410   -3.9070   -1.7150 n         1 MOL     -0.075029
     80 C25         1.4050   -4.1140   -1.7910 c3        1 MOL     -0.047638
     81 C26         0.8830   -2.7020   -1.6540 c         1 MOL      0.335460
     82 O14         1.0010   -2.1390   -0.5930 o         1 MOL     -0.392755
     83 C27         0.8550   -5.1490   -0.7550 c3        1 MOL      0.648537
     84 C28        -0.6420   -5.2770   -0.6070 c3        1 MOL     -0.517806
     85 O15         1.4710   -4.9360    0.4710 oh        1 MOL     -0.812506
     86 H35         3.1990   -3.2740   -1.0180 hn        1 MOL      0.106774
     87 H36         1.1540   -4.5650   -2.7470 h1        1 MOL      0.007446
     88 H37         1.1690   -6.1070   -1.1540 h1        1 MOL     -0.042708
     89 H38         1.8510   -5.7970    0.6440 ho        1 MOL      0.436722
     90 H39        -1.1890   -5.6010   -1.4900 hc        1 MOL      0.122692
     91 H40        -0.7870   -6.0820    0.1170 hc        1 MOL      0.122692
     92 H41        -1.0540   -4.3340   -0.2710 hc        1 MOL      0.122692
     93 N9          0.3700   -2.0940   -2.7100 n         1 MOL     -0.502843
     94 C29        -0.1800   -0.7520   -2.7010 c3        1 MOL     -0.073129
     95 C30        -1.3900   -0.5030   -1.7110 c         1 MOL      0.704259
     96 O16        -1.6290   -1.3520   -0.8260 o         1 MOL     -0.546805
     97 C31         0.9540    0.2560   -2.5790 c3        1 MOL      0.485716
     98 C32         2.2570    0.0230   -3.3870 c3        1 MOL      0.024386
     99 C33         0.6680    1.7760   -2.7090 c3        1 MOL     -0.059115
    100 C34         2.3110    0.5850   -4.8140 c3        1 MOL     -0.312636
    101 H42         0.5100   -2.5520   -3.6050 hn        1 MOL      0.348473
    102 H43        -0.5470   -0.5080   -3.7000 h1        1 MOL      0.014714
    103 H44         1.2350    0.1650   -1.5300 hc        1 MOL     -0.151432
    104 H45         2.4860   -1.0430   -3.4770 hc        1 MOL      0.036485
    105 H46         3.1440    0.3480   -2.8530 hc        1 MOL      0.036485
    106 H47         1.5860    2.3750   -2.6970 hc        1 MOL     -0.032829
    107 H48         0.1820    1.9760   -3.6650 hc        1 MOL     -0.032829
    108 H49        -0.0140    2.1730   -1.9640 hc        1 MOL     -0.032829
    109 H50         3.2690    0.1950   -5.1620 hc        1 MOL      0.067542
    110 H51         1.4420    0.2110   -5.3620 hc        1 MOL      0.067542
    111 H52         2.2790    1.6750   -4.8240 hc        1 MOL      0.067542
    112 N10        -2.0900    0.6670   -1.7300 n         1 MOL     -0.630578
    113 C35        -2.9290    1.3110   -0.7010 c3        1 MOL      0.307764
    114 C36        -4.4510    1.0410   -0.9400 c         1 MOL      0.456355
    115 O17        -5.3540    1.6990   -0.4850 o         1 MOL     -0.480455
    116 C37        -2.6440    2.8080   -0.3930 c3        1 MOL      0.466798
    117 C38        -2.8350    3.8960   -1.3770 c3        1 MOL     -0.253632
    118 O18        -1.3550    2.9620    0.0830 oh        1 MOL     -0.706867
    119 H53        -1.8760    1.2090   -2.5570 hn        1 MOL      0.260651
    120 H54        -2.7140    0.7920    0.2440 h1        1 MOL      0.033715
    121 H55        -3.2830    3.0280    0.4580 h1        1 MOL     -0.038186
    122 H56        -1.3860    3.6390    0.7700 ho        1 MOL      0.438267
    123 H57        -2.0540    3.8830   -2.1380 hc        1 MOL      0.035460
    124 H58        -3.7940    3.7260   -1.8570 hc        1 MOL      0.035460
    125 H59        -2.7870    4.8690   -0.8790 hc        1 MOL      0.035460
    126 N11        -4.7290    0.0590   -1.8910 n         1 MOL     -0.410558
    127 C39        -5.9980   -0.3390   -2.4850 c3        1 MOL      0.078794
    128 C40        -7.0520   -0.5350   -1.3650 c         1 MOL      0.304843
    129 O19        -6.7690   -1.2990   -0.4480 o         1 MOL     -0.436236
    130 C41        -5.8450   -1.5630   -3.2860 c3        1 MOL      0.413971
    131 C42        -7.0690   -1.8840   -4.1140 c3        1 MOL     -0.256901
    132 O20        -4.7970   -1.4780   -4.2120 oh        1 MOL     -0.630083
    133 H60        -3.9820   -0.5520   -2.1880 hn        1 MOL      0.205742
    134 H61        -6.3680    0.4350   -3.1600 h1        1 MOL      0.045534
    135 H62        -5.6470   -2.4170   -2.6510 h1        1 MOL     -0.005582
    136 H63        -4.6490   -2.4000   -4.4150 ho        1 MOL      0.394921
    137 H64        -7.6400   -1.0500   -4.5090 hc        1 MOL      0.057970
    138 H65        -6.9470   -2.4960   -5.0120 hc        1 MOL      0.057970
    139 H66        -7.7140   -2.5120   -3.5030 hc        1 MOL      0.057970
    140 N12        -8.2030    0.1480   -1.3640 n         1 MOL     -0.217390
    141 C43        -9.3260    0.0810   -0.4400 c3        1 MOL      0.076066
    142 C44        -8.8630    0.3030    1.0520 c         1 MOL      0.512875
    143 O21        -9.1750   -0.4700    1.9510 o         1 MOL     -0.466227
    144 C45       -10.2250   -1.1540   -0.6600 c3        1 MOL     -0.264090
    145 C46       -10.8680   -1.1170   -2.0510 c3        1 MOL      0.073446
    146 C47       -11.7330   -2.3340   -2.2940 c3        1 MOL     -0.175862
    147 C48       -12.3640   -2.2040   -3.6620 c3        1 MOL      0.117272
    148 N13       -13.4970   -3.2000   -3.8630 n4        1 MOL     -0.100607
    149 H67        -8.3860    0.7360   -2.1680 hn        1 MOL      0.185480
    150 H68        -9.9080    0.9750   -0.6690 h1        1 MOL      0.043889
    151 H69       -11.0270   -1.2000    0.0670 hc        1 MOL      0.101429
    152 H70        -9.7100   -2.0990   -0.5110 hc        1 MOL      0.101429
    153 H71       -10.1030   -0.9860   -2.8160 hc        1 MOL      0.022403
    154 H72       -11.5780   -0.2940   -2.0680 hc        1 MOL      0.022403
    155 H73       -12.4840   -2.2020   -1.5060 hc        1 MOL      0.082880
    156 H74       -11.1410   -3.2560   -2.2870 hc        1 MOL      0.082880
    157 H75       -11.5250   -2.4150   -4.3360 hx        1 MOL      0.026837
    158 H76       -12.6220   -1.1750   -3.8870 hx        1 MOL      0.026837
    159 H77       -13.9770   -3.4550   -3.0080 hn        1 MOL      0.177787
    160 H78       -14.1510   -2.8290   -4.5430 hn        1 MOL      0.177787
    161 H79       -13.2040   -4.0170   -4.3750 hn        1 MOL      0.177787
    162 N14        -7.9850    1.3220    1.3050 n         1 MOL     -0.597111
    163 C49        -7.2120    1.4710    2.5030 c3        1 MOL      0.474819
    164 C50        -5.8830    2.2420    2.3600 c         1 MOL      0.336599
    165 O22        -4.8650    1.7360    2.8390 o         1 MOL     -0.550551
    166 C51        -8.0820    2.0010    3.6590 c3        1 MOL     -0.339508
    167 C52        -7.3370    1.8200    5.0610 c3        1 MOL     -0.140650
    168 C53        -8.1230    2.5250    6.1610 c         1 MOL      0.705110
    169 O23        -9.3540    2.4260    6.3520 o         1 MOL     -0.628567
    170 O24        -7.4020    3.2850    6.8800 o         1 MOL     -0.628567
    171 H80        -7.5940    1.6640    0.4400 hn        1 MOL      0.253504
    172 H81        -6.9340    0.4390    2.7370 h1        1 MOL      0.024132
    173 H82        -9.0310    1.4540    3.6790 hc        1 MOL      0.108813
    174 H83        -8.2580    3.0600    3.4950 hc        1 MOL      0.108813
    175 H84        -6.3520    2.2790    5.1310 hc        1 MOL      0.049491
    176 H85        -7.2310    0.7540    5.2650 hc        1 MOL      0.049491
    177 N15        -5.7880    3.5230    1.8890 n         1 MOL     -0.314717
    178 C54        -6.8780    4.4000    1.4010 c3        1 MOL      0.053690
    179 H86        -7.0740    5.1790    2.1370 h1        1 MOL      0.020715
    180 H87        -6.5810    4.8580    0.4580 h1        1 MOL      0.020715
    181 H88        -7.7820    3.8080    1.2500 h1        1 MOL      0.020715
    182 H89        -4.8250    3.7850    1.7370 hn        1 MOL      0.258967
    183 Ca1         1.4590   -2.8550    2.1360 Ca        1 MOL      1.783982
    184 O25        -0.2720   -4.9720    3.0140 oh        1 MOL     -0.881992
    185 H90        -0.8130   -5.4870    2.4130 ho        1 MOL      0.430820
    186 H91        -0.7010   -5.0790    3.8630 ho        1 MOL      0.430820
    187 O26        -1.0110   -1.8670    1.6520 oh        1 MOL     -0.881992
    188 H92        -1.1830   -1.6880    0.7250 ho        1 MOL      0.430820
    189 H93        -1.5230   -1.2120    2.1170 ho        1 MOL      0.430820
    190 O27         0.2170   -2.3540    4.4440 oh        1 MOL     -0.881992
    191 H94        -0.0250   -1.7490    5.1450 ho        1 MOL      0.430820
    192 H95        -0.3440   -3.1120    4.5680 ho        1 MOL      0.430820
    193 O28         3.3530   -1.7510    4.0260 oh        1 MOL     -0.881992
    194 H96         4.1230   -2.3070    4.0330 ho        1 MOL      0.430820
    195 H97         3.6600   -0.9020    4.3510 ho        1 MOL      0.430820
@<TRIPOS>BOND
     1    1    2 1   
     2    1    4 1   
     3    1    5 1   
     4    1    6 1   
     5    2    3 2   
     6    2    7 1   
     7    7    8 1   
     8    7   15 1   
     9    8    9 1   
    10    8   11 1   
    11    8   16 1   
    12    9   10 2   
    13    9   19 1   
    14   11   12 1   
    15   11   17 1   
    16   11   18 1   
    17   12   13 1   
    18   12   14 1   
    19   19   20 1   
    20   19   28 1   
    21   20   21 1   
    22   20   23 1   
    23   20   29 1   
    24   21   22 2   
    25   21   41 1   
    26   23   24 1   
    27   23   30 1   
    28   23   31 1   
    29   24   25 1   
    30   24   32 1   
    31   24   33 1   
    32   25   26 1   
    33   25   34 1   
    34   25   35 1   
    35   26   27 1   
    36   26   36 1   
    37   26   37 1   
    38   27   38 1   
    39   27   39 1   
    40   27   40 1   
    41   41   42 1   
    42   41   49 1   
    43   42   43 1   
    44   42   45 1   
    45   42   50 1   
    46   43   44 2   
    47   43   53 1   
    48   45   46 1   
    49   45   51 1   
    50   45   52 1   
    51   46   47 1   
    52   46   48 1   
    53   53   54 1   
    54   53   57 1   
    55   54   55 1   
    56   54   58 1   
    57   54   59 1   
    58   55   56 2   
    59   55   60 1   
    60   60   61 1   
    61   60   68 1   
    62   61   62 1   
    63   61   64 1   
    64   61   69 1   
    65   62   63 2   
    66   62   72 1   
    67   64   65 1   
    68   64   70 1   
    69   64   71 1   
    70   65   66 1   
    71   65   67 1   
    72   72   73 1   
    73   72   76 1   
    74   73   74 1   
    75   73   77 1   
    76   73   78 1   
    77   74   75 2   
    78   74   79 1   
    79   79   80 1   
    80   79   86 1   
    81   80   81 1   
    82   80   83 1   
    83   80   87 1   
    84   81   82 2   
    85   81   93 1   
    86   83   84 1   
    87   83   85 1   
    88   83   88 1   
    89   84   90 1   
    90   84   91 1   
    91   84   92 1   
    92   85   89 1   
    93   93   94 1   
    94   93  101 1   
    95   94   95 1   
    96   94   97 1   
    97   94  102 1   
    98   95   96 2   
    99   95  112 1   
   100   97   98 1   
   101   97   99 1   
   102   97  103 1   
   103   98  100 1   
   104   98  104 1   
   105   98  105 1   
   106   99  106 1   
   107   99  107 1   
   108   99  108 1   
   109  100  109 1   
   110  100  110 1   
   111  100  111 1   
   112  112  113 1   
   113  112  119 1   
   114  113  114 1   
   115  113  116 1   
   116  113  120 1   
   117  114  115 2   
   118  114  126 1   
   119  116  117 1   
   120  116  118 1   
   121  116  121 1   
   122  117  123 1   
   123  117  124 1   
   124  117  125 1   
   125  118  122 1   
   126  126  127 1   
   127  126  133 1   
   128  127  128 1   
   129  127  130 1   
   130  127  134 1   
   131  128  129 2   
   132  128  140 1   
   133  130  131 1   
   134  130  132 1   
   135  130  135 1   
   136  131  137 1   
   137  131  138 1   
   138  131  139 1   
   139  132  136 1   
   140  140  141 1   
   141  140  149 1   
   142  141  142 1   
   143  141  144 1   
   144  141  150 1   
   145  142  143 2   
   146  142  162 1   
   147  144  145 1   
   148  144  151 1   
   149  144  152 1   
   150  145  146 1   
   151  145  153 1   
   152  145  154 1   
   153  146  147 1   
   154  146  155 1   
   155  146  156 1   
   156  147  148 1   
   157  147  157 1   
   158  147  158 1   
   159  148  159 1   
   160  148  160 1   
   161  148  161 1   
   162  162  163 1   
   163  162  171 1   
   164  163  164 1   
   165  163  166 1   
   166  163  172 1   
   167  164  165 2   
   168  164  177 1   
   169  166  167 1   
   170  166  173 1   
   171  166  174 1   
   172  167  168 1   
   173  167  175 1   
   174  167  176 1   
   175  168  169 1   
   176  168  170 1   
   177  177  178 1   
   178  177  182 1   
   179  178  179 1   
   180  178  180 1   
   181  178  181 1   
   182  184  185 1   
   183  184  186 1   
   184  187  188 1   
   185  187  189 1   
   186  190  191 1   
   187  190  192 1   
   188  193  194 1   
   189  193  195 1   
@<TRIPOS>SUBSTRUCTURE
     1 MOL         1 TEMP              0 ****  ****    0 ROOT
