@<TRIPOS>MOLECULE
MOL
  195   189     1     0     0
SMALL
resp


@<TRIPOS>ATOM
      1 C1          1.3630   -5.2780    2.4780 c3        1 MOL     -0.173429
      2 C2          2.2600   -4.8720    1.3260 c         1 MOL      0.630526
      3 O1          2.8350   -3.8190    1.4040 o         1 MOL     -0.543222
      4 H1          1.8500   -6.0620    3.0580 hc        1 MOL      0.017368
      5 H2          1.1800   -4.4150    3.1180 hc        1 MOL      0.017368
      6 H3          0.4160   -5.6510    2.0880 hc        1 MOL      0.017368
      7 N1          2.3960   -5.6900    0.2200 n         1 MOL     -0.413988
      8 C3          3.3570   -5.4270   -0.8440 c3        1 MOL     -0.033629
      9 C4          4.8190   -5.3610   -0.4340 c         1 MOL      0.300141
     10 O2          5.6290   -5.9020   -1.2350 o         1 MOL     -0.492262
     11 C5          2.9730   -4.1140   -1.6450 c3        1 MOL     -0.192082
     12 C6          1.6220   -4.1700   -2.2280 c         1 MOL      0.701671
     13 O3          0.8190   -3.2280   -1.9720 o         1 MOL     -0.714625
     14 O4          1.3620   -5.1140   -3.0140 o         1 MOL     -0.714625
     15 H4          1.8300   -6.5280    0.2060 hn        1 MOL      0.276006
     16 H5          3.1850   -6.1960   -1.5940 h1        1 MOL      0.074184
     17 H6          3.6790   -3.9730   -2.4490 hc        1 MOL      0.118835
     18 H7          3.0570   -3.2220   -1.0310 hc        1 MOL      0.118835
     19 N2          5.2750   -4.9020    0.7300 n         1 MOL     -0.143369
     20 C7          6.6600   -4.8930    1.2910 c3        1 MOL      0.208367
     21 C8          7.7280   -4.6150    0.2550 c         1 MOL      0.533189
     22 O5          8.4410   -5.5330   -0.1610 o         1 MOL     -0.559925
     23 C9          6.7610   -6.2490    2.1080 c3        1 MOL      0.013401
     24 C10         5.5510   -6.4540    3.0810 c3        1 MOL      0.135306
     25 C11         8.1330   -6.2810    2.7680 c3        1 MOL     -0.180633
     26 C12         5.7300   -7.6600    4.0740 c3        1 MOL     -0.167959
     27 H8          4.5800   -4.3150    1.1750 hn        1 MOL      0.129538
     28 H9          6.7240   -4.0650    2.0000 h1        1 MOL      0.018319
     29 H10         6.7330   -6.9560    1.2830 hc        1 MOL      0.015891
     30 H11         4.6640   -6.7100    2.4910 hc        1 MOL     -0.026451
     31 H12         5.4230   -5.5680    3.6880 hc        1 MOL     -0.026451
     32 H13         8.9150   -5.8770    2.1200 hc        1 MOL      0.031377
     33 H14         8.1500   -5.6610    3.6680 hc        1 MOL      0.031377
     34 H15         8.4280   -7.2830    3.0980 hc        1 MOL      0.031377
     35 H16         5.9110   -8.5680    3.5020 hc        1 MOL      0.022710
     36 H17         6.5750   -7.5700    4.7530 hc        1 MOL      0.022710
     37 H18         4.7940   -7.8220    4.6180 hc        1 MOL      0.022710
     38 N3          7.7840   -3.4420   -0.4020 n         1 MOL     -0.552112
     39 C13         6.8200   -2.3720   -0.2570 c3        1 MOL      0.097766
     40 C14         6.0980   -2.1450   -1.5910 c         1 MOL      0.728746
     41 O6          6.5070   -2.6680   -2.5800 o         1 MOL     -0.556479
     42 C15         7.4920   -1.1290    0.3470 c3        1 MOL     -0.310951
     43 C16         6.4590   -0.0560    0.7720 c         1 MOL      0.797478
     44 O7          6.5710    1.1170    0.4650 o         1 MOL     -0.745221
     45 O8          5.4290   -0.3980    1.4840 o         1 MOL     -0.745221
     46 H19         8.1520   -3.4980   -1.3410 hn        1 MOL      0.323460
     47 H20         6.0120   -2.6480    0.4240 h1        1 MOL     -0.015106
     48 H21         8.1640   -0.6140   -0.3460 hc        1 MOL      0.061227
     49 H22         8.0810   -1.4670    1.1970 hc        1 MOL      0.061227
     50 N4          4.9580   -1.4360   -1.5490 n         1 MOL     -0.533941
     51 C17         4.1070   -1.2120   -2.7460 c3        1 MOL     -0.253661
     52 C18         4.5020    0.1310   -3.4220 c         1 MOL      0.627767
     53 O9          5.1120    0.1650   -4.5030 o         1 MOL     -0.562675
     54 H23         4.5540   -1.0650   -0.6990 hn        1 MOL      0.335322
     55 H24         3.0540   -1.1560   -2.4720 h1        1 MOL      0.143296
     56 H25         4.1700   -2.0460   -3.4450 h1        1 MOL      0.143296
     57 N5          4.1120    1.3210   -2.8780 n         1 MOL     -0.529639
     58 C19         4.5660    2.6560   -3.3190 c3        1 MOL      0.109932
     59 C20         5.1610    3.4960   -2.2120 c         1 MOL      0.504787
     60 O10         5.8330    4.5050   -2.5020 o         1 MOL     -0.613606
     61 C21         3.3700    3.3470   -4.0010 c3        1 MOL     -0.096189
     62 C22         2.1400    3.3150   -3.2080 c         1 MOL      0.729804
     63 O11         1.1020    2.7930   -3.6840 o         1 MOL     -0.703186
     64 O12         2.1170    3.8550   -2.0810 o         1 MOL     -0.703186
     65 H26         3.5400    1.2770   -2.0520 hn        1 MOL      0.288632
     66 H27         5.3830    2.6280   -4.0370 h1        1 MOL      0.075973
     67 H28         3.1320    3.0060   -5.0070 hc        1 MOL     -0.008044
     68 H29         3.7030    4.3780   -4.0440 hc        1 MOL     -0.008044
     69 N6          5.0290    3.1960   -0.9670 n         1 MOL     -0.145727
     70 C23         5.5970    3.9700    0.0890 c3        1 MOL     -0.298010
     71 C24         4.8160    5.2680    0.4780 c         1 MOL      0.405573
     72 O13         5.3990    6.0890    1.1320 o         1 MOL     -0.556801
     73 H30         4.9090    2.2280   -0.7170 hn        1 MOL      0.197323
     74 H31         6.5940    4.2630   -0.2050 h1        1 MOL      0.164029
     75 H32         5.6150    3.2840    0.9320 h1        1 MOL      0.164029
     76 N7          3.6220    5.5190   -0.0800 n         1 MOL      0.136027
     77 C25         2.6780    6.5910    0.3370 c3        1 MOL     -0.068523
     78 C26         2.1090    6.5420    1.7800 c         1 MOL      0.451230
     79 O14         1.9000    7.6500    2.3490 o         1 MOL     -0.517844
     80 C27         3.0550    7.9140   -0.2890 c3        1 MOL      0.109836
     81 C28         3.3200    7.9260   -1.8000 c3        1 MOL     -0.138272
     82 C29         3.5700    9.3190   -2.3960 c         1 MOL      0.638593
     83 N8          4.4980    9.4400   -3.3430 n         1 MOL     -0.779476
     84 O15         3.0440   10.3080   -2.0040 o         1 MOL     -0.563624
     85 H33         3.2660    4.8980   -0.7820 hn        1 MOL     -0.028670
     86 H34         1.8240    6.2210   -0.2290 h1        1 MOL      0.078903
     87 H35         4.0220    8.2400    0.1100 hc        1 MOL     -0.012452
     88 H36         2.3160    8.6680   -0.0420 hc        1 MOL     -0.012452
     89 H37         2.4780    7.4940   -2.3540 hc        1 MOL      0.040449
     90 H38         4.2370    7.3500   -1.9110 hc        1 MOL      0.040449
     91 H39         4.9240    8.5940   -3.7060 hn        1 MOL      0.339695
     92 H40         4.6950   10.3520   -3.7230 hn        1 MOL      0.339695
     93 N9          1.9190    5.3260    2.2910 n         1 MOL     -0.313384
     94 C30         1.4380    5.0300    3.5960 c3        1 MOL     -0.210456
     95 C31         0.2800    4.0300    3.6410 c         1 MOL      0.560923
     96 O16        -0.2510    3.8060    4.7560 o         1 MOL     -0.596557
     97 C32         2.6640    4.6020    4.5210 c3        1 MOL      0.450420
     98 C33         3.3020    3.2420    4.2080 c3        1 MOL     -0.398960
     99 C34         3.7740    5.6740    4.7430 c3        1 MOL     -0.398960
    100 H41         2.2230    4.5460    1.7330 hn        1 MOL      0.210936
    101 H42         0.9510    5.9460    3.9330 h1        1 MOL      0.122708
    102 H43         2.1860    4.5000    5.5020 hc        1 MOL     -0.068509
    103 H44         4.1910    3.1020    4.8280 hc        1 MOL      0.091962
    104 H45         2.6190    2.4920    4.6280 hc        1 MOL      0.091962
    105 H46         3.5290    3.1010    3.1520 hc        1 MOL      0.091962
    106 H47         4.2050    5.2990    5.6730 hc        1 MOL      0.091962
    107 H48         4.3810    5.6890    3.8380 hc        1 MOL      0.091962
    108 H49         3.2350    6.6120    4.8530 hc        1 MOL      0.091962
    109 N10        -0.0360    3.2840    2.6240 n         1 MOL     -0.431485
    110 C35        -1.1630    2.2510    2.6520 c3        1 MOL      0.303337
    111 C36        -1.8920    2.1900    1.2410 c         1 MOL      0.357089
    112 O17        -1.4420    2.7430    0.2270 o         1 MOL     -0.476159
    113 C37        -0.4410    0.9650    2.9520 c3        1 MOL     -0.332760
    114 C38        -1.3020    0.0420    3.7520 c         1 MOL      0.617247
    115 N11        -0.7200   -0.6150    4.7470 n         1 MOL     -0.740635
    116 O18        -2.4890   -0.1430    3.5470 o         1 MOL     -0.503999
    117 H50         0.3330    3.4790    1.7040 hn        1 MOL      0.263233
    118 H51        -1.8690    2.4740    3.4540 h1        1 MOL      0.045742
    119 H52         0.4050    1.2040    3.5920 hc        1 MOL      0.122516
    120 H53        -0.0500    0.4940    2.0500 hc        1 MOL      0.122516
    121 H54         0.2430   -0.3660    4.9040 hn        1 MOL      0.353429
    122 H55        -1.2260   -1.2630    5.3270 hn        1 MOL      0.353429
    123 N12        -3.0100    1.4590    1.2310 n         1 MOL     -0.391177
    124 C39        -3.9170    1.4310    0.0970 c3        1 MOL      0.182252
    125 C40        -5.3340    1.2070    0.5070 c         1 MOL      0.513015
    126 O19        -5.6020    0.6520    1.5790 o         1 MOL     -0.536633
    127 C41        -3.4370    0.3120   -0.8270 c3        1 MOL     -0.280977
    128 C42        -4.2110    0.2780   -2.1870 ca        1 MOL      0.054023
    129 C43        -4.2710    1.4310   -3.0050 ca        1 MOL     -0.145442
    130 C44        -4.8850   -0.8340   -2.6520 ca        1 MOL     -0.145442
    131 C45        -4.9630    1.4320   -4.2260 ca        1 MOL     -0.271848
    132 C46        -5.6990   -0.7370   -3.8060 ca        1 MOL     -0.271848
    133 C47        -5.7370    0.3420   -4.6380 ca        1 MOL      0.404642
    134 O20        -6.3480    0.3720   -5.8500 oh        1 MOL     -0.568374
    135 H56        -3.3530    1.0000    2.0640 hn        1 MOL      0.205486
    136 H57        -3.9010    2.4110   -0.3850 h1        1 MOL      0.067474
    137 H58        -3.4900   -0.6500   -0.3100 hc        1 MOL      0.151586
    138 H59        -2.4350    0.4750   -1.2100 hc        1 MOL      0.151586
    139 H60        -3.8210    2.3520   -2.6640 ha        1 MOL      0.152532
    140 H61        -4.7840   -1.7600   -2.0970 ha        1 MOL      0.152532
    141 H62        -5.0030    2.2910   -4.8640 ha        1 MOL      0.125070
    142 H63        -6.2600   -1.5970   -4.1550 ha        1 MOL      0.125070
    143 H64        -6.1220    1.1790   -6.3320 ho        1 MOL      0.406614
    144 N13        -6.2810    1.6770   -0.3160 n         1 MOL     -0.517841
    145 C48        -7.7150    1.3310   -0.1050 c3        1 MOL      0.210058
    146 C49        -8.4220    0.7590   -1.3480 c         1 MOL      0.515126
    147 O21        -8.8400    1.5170   -2.2350 o         1 MOL     -0.560046
    148 C50        -8.4660    2.6180    0.4830 c3        1 MOL      0.102593
    149 C51        -7.9560    3.2610    1.7950 c3        1 MOL     -0.214093
    150 C52        -9.0290    4.2270    2.3160 c         1 MOL      0.736541
    151 O22        -8.9760    5.4090    1.9660 o         1 MOL     -0.703135
    152 O23        -9.8810    3.8390    3.0810 o         1 MOL     -0.703135
    153 H65        -6.0480    1.8790   -1.2750 hn        1 MOL      0.277910
    154 H66        -7.7770    0.5610    0.6600 h1        1 MOL      0.059512
    155 H67        -9.5120    2.3030    0.5490 hc        1 MOL     -0.021635
    156 H68        -8.4090    3.4230   -0.2540 hc        1 MOL     -0.021635
    157 H69        -7.0480    3.8430    1.6060 hc        1 MOL      0.028889
    158 H70        -7.8910    2.4320    2.5020 hc        1 MOL      0.028889
    159 N14        -8.5060   -0.5860   -1.5070 n         1 MOL     -0.525221
    160 C53        -7.9070   -1.6950   -0.7240 c3        1 MOL      0.104079
    161 C54        -8.4770   -1.8330    0.7150 c         1 MOL      0.291335
    162 O24        -9.6700   -1.8170    0.9950 o         1 MOL     -0.521083
    163 C55        -8.0760   -3.0440   -1.5090 c3        1 MOL      0.072797
    164 C56        -7.6340   -4.2250   -0.7480 c3        1 MOL      0.355297
    165 C57        -6.1060   -4.4630   -0.6250 c         1 MOL      0.260658
    166 O25        -5.5530   -5.3370   -1.2180 o         1 MOL     -0.665667
    167 O26        -5.4330   -3.6430    0.0210 o         1 MOL     -0.665667
    168 H71        -9.0290   -0.8400   -2.3330 hn        1 MOL      0.310814
    169 H72        -6.8280   -1.6060   -0.5790 h1        1 MOL      0.031089
    170 H73        -7.7060   -2.9240   -2.5230 hc        1 MOL     -0.009877
    171 H74        -9.1360   -3.2170   -1.7120 hc        1 MOL     -0.009877
    172 H75        -8.0540   -5.0940   -1.2580 hc        1 MOL     -0.084633
    173 H76        -8.0960   -4.2640    0.2330 hc        1 MOL     -0.084633
    174 N15        -7.6380   -2.0130    1.7420 n         1 MOL     -0.042824
    175 C58        -8.0710   -2.0180    3.1870 c3        1 MOL     -0.190739
    176 H77        -7.6570   -2.8930    3.6860 h1        1 MOL      0.083583
    177 H78        -7.7110   -1.1130    3.6780 h1        1 MOL      0.083583
    178 H79        -9.1600   -2.0510    3.2390 h1        1 MOL      0.083583
    179 H80        -6.6850   -2.2760    1.5260 hn        1 MOL      0.107638
    180 Ca1        -3.1830   -4.8270    0.0390 Ca        1 MOL      1.718066
    181 O27        -2.2890   -3.8730   -2.1570 oh        1 MOL     -0.868056
    182 O28        -0.6070   -5.6330   -0.6050 oh        1 MOL     -0.868056
    183 H81        -1.7350   -3.1490   -2.4410 ho        1 MOL      0.419505
    184 H82        -0.2370   -4.8580   -1.0080 ho        1 MOL      0.419505
    185 H83        -2.4470   -4.3860   -2.9450 ho        1 MOL      0.419505
    186 H84        -0.1990   -6.3640   -1.0580 ho        1 MOL      0.419505
    187 O29        -1.8920   -2.5720    0.7840 oh        1 MOL     -0.868056
    188 H85        -1.1180   -2.1460    0.4220 ho        1 MOL      0.419505
    189 H86        -2.0740   -2.0860    1.5910 ho        1 MOL      0.419505
    190 O30        -2.7010   -7.0010   -1.7890 oh        1 MOL     -0.868056
    191 H87        -2.0640   -6.8340   -2.4790 ho        1 MOL      0.419505
    192 H88        -3.4880   -7.2920   -2.2690 ho        1 MOL      0.419505
    193 O31        -4.0010   -4.0410    2.4580 oh        1 MOL     -0.868056
    194 H89        -4.4470   -3.2150    2.6300 ho        1 MOL      0.419505
    195 H90        -4.6670   -4.7080    2.6280 ho        1 MOL      0.419505
@<TRIPOS>BOND
     1    1    2 1   
     2    1    4 1   
     3    1    5 1   
     4    1    6 1   
     5    2    3 2   
     6    2    7 1   
     7    7    8 1   
     8    7   15 1   
     9    8    9 1   
    10    8   11 1   
    11    8   16 1   
    12    9   10 2   
    13    9   19 1   
    14   11   12 1   
    15   11   17 1   
    16   11   18 1   
    17   12   13 1   
    18   12   14 1   
    19   19   20 1   
    20   19   27 1   
    21   20   21 1   
    22   20   23 1   
    23   20   28 1   
    24   21   22 2   
    25   21   38 1   
    26   23   24 1   
    27   23   25 1   
    28   23   29 1   
    29   24   26 1   
    30   24   30 1   
    31   24   31 1   
    32   25   32 1   
    33   25   33 1   
    34   25   34 1   
    35   26   35 1   
    36   26   36 1   
    37   26   37 1   
    38   38   39 1   
    39   38   46 1   
    40   39   40 1   
    41   39   42 1   
    42   39   47 1   
    43   40   41 2   
    44   40   50 1   
    45   42   43 1   
    46   42   48 1   
    47   42   49 1   
    48   43   44 1   
    49   43   45 1   
    50   50   51 1   
    51   50   54 1   
    52   51   52 1   
    53   51   55 1   
    54   51   56 1   
    55   52   53 2   
    56   52   57 1   
    57   57   58 1   
    58   57   65 1   
    59   58   59 1   
    60   58   61 1   
    61   58   66 1   
    62   59   60 2   
    63   59   69 1   
    64   61   62 1   
    65   61   67 1   
    66   61   68 1   
    67   62   63 1   
    68   62   64 1   
    69   69   70 1   
    70   69   73 1   
    71   70   71 1   
    72   70   74 1   
    73   70   75 1   
    74   71   72 2   
    75   71   76 1   
    76   76   77 1   
    77   76   85 1   
    78   77   78 1   
    79   77   80 1   
    80   77   86 1   
    81   78   79 2   
    82   78   93 1   
    83   80   81 1   
    84   80   87 1   
    85   80   88 1   
    86   81   82 1   
    87   81   89 1   
    88   81   90 1   
    89   82   83 1   
    90   82   84 2   
    91   83   91 1   
    92   83   92 1   
    93   93   94 1   
    94   93  100 1   
    95   94   95 1   
    96   94   97 1   
    97   94  101 1   
    98   95   96 2   
    99   95  109 1   
   100   97   98 1   
   101   97   99 1   
   102   97  102 1   
   103   98  103 1   
   104   98  104 1   
   105   98  105 1   
   106   99  106 1   
   107   99  107 1   
   108   99  108 1   
   109  109  110 1   
   110  109  117 1   
   111  110  111 1   
   112  110  113 1   
   113  110  118 1   
   114  111  112 2   
   115  111  123 1   
   116  113  114 1   
   117  113  119 1   
   118  113  120 1   
   119  114  115 1   
   120  114  116 2   
   121  115  121 1   
   122  115  122 1   
   123  123  124 1   
   124  123  135 1   
   125  124  125 1   
   126  124  127 1   
   127  124  136 1   
   128  125  126 2   
   129  125  144 1   
   130  127  128 1   
   131  127  137 1   
   132  127  138 1   
   133  128  129 ar  
   134  128  130 ar  
   135  129  131 ar  
   136  129  139 1   
   137  130  132 ar  
   138  130  140 1   
   139  131  133 ar  
   140  131  141 1   
   141  132  133 ar  
   142  132  142 1   
   143  133  134 1   
   144  134  143 1   
   145  144  145 1   
   146  144  153 1   
   147  145  146 1   
   148  145  148 1   
   149  145  154 1   
   150  146  147 2   
   151  146  159 1   
   152  148  149 1   
   153  148  155 1   
   154  148  156 1   
   155  149  150 1   
   156  149  157 1   
   157  149  158 1   
   158  150  151 1   
   159  150  152 1   
   160  159  160 1   
   161  159  168 1   
   162  160  161 1   
   163  160  163 1   
   164  160  169 1   
   165  161  162 2   
   166  161  174 1   
   167  163  164 1   
   168  163  170 1   
   169  163  171 1   
   170  164  165 1   
   171  164  172 1   
   172  164  173 1   
   173  165  166 1   
   174  165  167 1   
   175  174  175 1   
   176  174  179 1   
   177  175  176 1   
   178  175  177 1   
   179  175  178 1   
   180  181  183 1   
   181  181  185 1   
   182  182  184 1   
   183  182  186 1   
   184  187  188 1   
   185  187  189 1   
   186  190  191 1   
   187  190  192 1   
   188  193  194 1   
   189  193  195 1   
@<TRIPOS>SUBSTRUCTURE
     1 MOL         1 TEMP              0 ****  ****    0 ROOT
