@<TRIPOS>MOLECULE
MOL
  191   184     1     0     0
SMALL
resp


@<TRIPOS>ATOM
      1 C1          1.8920    1.0720    2.6490 c3        1 MOL     -0.351036
      2 C2          3.1700    1.0250    1.8220 c         1 MOL      0.727595
      3 O1          3.2240    1.6210    0.7940 o         1 MOL     -0.538914
      4 H1          1.2840    1.9190    2.3280 hc        1 MOL      0.086677
      5 H2          1.3310    0.1480    2.5060 hc        1 MOL      0.086677
      6 H3          2.1440    1.1860    3.7040 hc        1 MOL      0.086677
      7 N1          4.1650    0.2790    2.3230 n         1 MOL     -0.590943
      8 C3          5.4690    0.0520    1.6770 c3        1 MOL      0.123613
      9 C4          5.5180   -1.4950    1.3500 c         1 MOL      0.325654
     10 O2          6.4100   -1.8380    0.5260 o         1 MOL     -0.459048
     11 C5          6.6890    0.4470    2.5580 c3        1 MOL     -0.211299
     12 C6          6.6140   -0.2060    3.9660 c         1 MOL      0.718594
     13 O3          5.7160   -1.0900    4.2680 o         1 MOL     -0.699915
     14 O4          7.5460    0.0270    4.7770 o         1 MOL     -0.699915
     15 H4          4.0670   -0.1220    3.2410 hn        1 MOL      0.290780
     16 H5          5.5150    0.5960    0.7360 h1        1 MOL      0.131241
     17 H6          6.7080    1.5310    2.6770 hc        1 MOL      0.086113
     18 H7          7.5360    0.1270    1.9640 hc        1 MOL      0.086113
     19 N2          4.6100   -2.3910    1.7530 n         1 MOL     -0.337208
     20 C7          4.6530   -3.8290    1.3960 c3        1 MOL     -0.028994
     21 C8          4.7570   -4.1570   -0.1000 c         1 MOL      0.394176
     22 O5          5.2370   -5.2120   -0.5240 o         1 MOL     -0.501424
     23 C9          5.7230   -4.5520    2.1930 c3        1 MOL      0.029661
     24 C10         5.4300   -4.4640    3.7210 c3        1 MOL      0.184639
     25 C11         6.5750   -5.0030    4.5440 c3        1 MOL     -0.082742
     26 C12         7.7180   -4.0870    4.9050 c3        1 MOL      0.093281
     27 N3          7.5040   -2.8300    5.5330 n4        1 MOL     -0.218294
     28 H8          3.8630   -2.0750    2.3540 hn        1 MOL      0.266911
     29 H9          3.7230   -4.2560    1.7880 h1        1 MOL      0.067380
     30 H10         6.7010   -4.1330    1.9350 hc        1 MOL      0.021581
     31 H11         5.7700   -5.5780    1.8310 hc        1 MOL      0.021581
     32 H12         4.5230   -5.0370    3.9170 hc        1 MOL     -0.034942
     33 H13         5.1650   -3.4870    4.1130 hc        1 MOL     -0.034942
     34 H14         7.0280   -5.8920    4.0940 hc        1 MOL      0.001249
     35 H15         6.1770   -5.2800    5.5140 hc        1 MOL      0.001249
     36 H16         8.1800   -3.8860    3.9400 hx        1 MOL      0.045589
     37 H17         8.4700   -4.6410    5.4690 hx        1 MOL      0.045589
     38 H18         6.9530   -2.8270    6.3690 hn        1 MOL      0.272028
     39 H19         8.4230   -2.5640    5.8430 hn        1 MOL      0.272028
     40 H20         7.0360   -2.1120    4.9930 hn        1 MOL      0.272028
     41 N4          4.1050   -3.2770   -0.9220 n         1 MOL     -0.441704
     42 C13         3.9280   -3.2770   -2.4100 c3        1 MOL      0.473537
     43 C14         4.1830   -1.8880   -2.9550 c         1 MOL      0.453751
     44 O6          3.6130   -1.4880   -3.9820 o         1 MOL     -0.570393
     45 C15         2.6820   -4.0670   -2.7020 c3        1 MOL     -0.300238
     46 C16         1.5010   -3.4970   -1.9610 c         1 MOL      0.801444
     47 O7          0.4260   -4.0940   -2.1910 o         1 MOL     -0.758505
     48 O8          1.5580   -2.4360   -1.2260 o         1 MOL     -0.758505
     49 H21         3.5520   -2.6060   -0.4240 hn        1 MOL      0.288796
     50 H22         4.7580   -3.8160   -2.8670 h1        1 MOL     -0.040248
     51 H23         2.8720   -5.0820   -2.3710 hc        1 MOL      0.030822
     52 H24         2.4700   -4.0500   -3.7760 hc        1 MOL      0.030822
     53 N5          4.9490   -1.0440   -2.3080 n         1 MOL     -0.454940
     54 C17         5.2030    0.3250   -2.7470 c3        1 MOL      0.324334
     55 C18         6.5770    0.6780   -3.1860 c         1 MOL      0.475113
     56 O9          7.3950   -0.2410   -3.2300 o         1 MOL     -0.538243
     57 H25         5.3010   -1.3450   -1.4010 hn        1 MOL      0.221932
     58 H26         4.9190    1.0260   -1.9570 h1        1 MOL     -0.008069
     59 H27         4.5850    0.5320   -3.6170 h1        1 MOL     -0.008069
     60 N6          6.8460    1.9470   -3.3160 n         1 MOL     -0.540940
     61 C19         6.1620    3.1280   -2.8540 c3        1 MOL      0.321770
     62 C20         6.0840    3.2630   -1.3190 c         1 MOL      0.453048
     63 O10         7.0460    3.0740   -0.6080 o         1 MOL     -0.520540
     64 C21         6.7960    4.3740   -3.5370 c3        1 MOL     -0.543666
     65 C22         6.1790    5.6680   -3.0910 c         1 MOL      0.792662
     66 N7          5.6070    6.4980   -3.9650 n         1 MOL     -0.813037
     67 O11         6.1310    6.0530   -1.9610 o         1 MOL     -0.515169
     68 H28         7.7820    2.1740   -3.5990 hn        1 MOL      0.311536
     69 H29         5.1520    3.0420   -3.2560 h1        1 MOL      0.006117
     70 H30         6.6690    4.1420   -4.6000 hc        1 MOL      0.144025
     71 H31         7.8400    4.2580   -3.2430 hc        1 MOL      0.144025
     72 H32         5.4900    6.1680   -4.9170 hn        1 MOL      0.353447
     73 H33         5.0260    7.2640   -3.6720 hn        1 MOL      0.353447
     74 N8          4.8890    3.5430   -0.7660 n         1 MOL     -0.428259
     75 C23         3.6250    3.6170   -1.5010 c3        1 MOL     -0.156736
     76 C24         2.6450    4.4720   -0.6210 c         1 MOL      0.724486
     77 O12         3.0570    5.3300    0.1790 o         1 MOL     -0.534832
     78 H34         4.8290    3.8120    0.2030 hn        1 MOL      0.317547
     79 H35         3.2310    2.6130   -1.6050 h1        1 MOL      0.070455
     80 H36         3.6950    4.1050   -2.4830 h1        1 MOL      0.070455
     81 N9          1.3770    4.3100   -0.9560 n         1 MOL     -0.690316
     82 C25         0.3230    4.9870   -0.2700 c3        1 MOL      0.252142
     83 C26        -0.9120    4.1620    0.1290 c         1 MOL      0.583470
     84 O13        -1.0150    2.9870   -0.2590 o         1 MOL     -0.527629
     85 C27        -0.1280    6.1100   -1.1900 c3        1 MOL     -0.191955
     86 C28        -1.0000    7.1210   -0.5170 ca        1 MOL      0.019732
     87 C29        -2.3290    7.4010   -1.0170 ca        1 MOL     -0.148819
     88 C30        -0.5800    7.8390    0.6070 ca        1 MOL     -0.148819
     89 C31        -3.0550    8.3880   -0.3900 ca        1 MOL     -0.217293
     90 C32        -1.4260    8.5270    1.4460 ca        1 MOL     -0.217293
     91 C33        -2.6780    8.9000    0.8630 ca        1 MOL      0.315340
     92 O14        -3.5000    9.7840    1.4660 oh        1 MOL     -0.502238
     93 H37         1.1080    3.5470   -1.5610 hn        1 MOL      0.354227
     94 H38         0.6960    5.5050    0.6190 h1        1 MOL      0.002921
     95 H39        -0.6650    5.7280   -2.0550 hc        1 MOL      0.086970
     96 H40         0.7490    6.6310   -1.5940 hc        1 MOL      0.086970
     97 H41        -2.6440    6.8750   -1.9070 ha        1 MOL      0.139166
     98 H42         0.4610    7.7050    0.8780 ha        1 MOL      0.139166
     99 H43        -3.9740    8.7130   -0.8530 ha        1 MOL      0.134348
    100 H44        -1.1160    9.0540    2.3270 ha        1 MOL      0.134348
    101 H45        -3.3000    9.9190    2.3970 ho        1 MOL      0.379610
    102 N10        -1.8040    4.6870    1.0290 n         1 MOL     -0.515272
    103 C34        -3.0820    4.0510    1.5310 c3        1 MOL     -0.016161
    104 C35        -4.0940    4.1550    0.3520 c         1 MOL      0.534427
    105 O15        -4.0710    5.0880   -0.4480 o         1 MOL     -0.487300
    106 C36        -3.5450    4.6750    2.8360 c3        1 MOL      0.194190
    107 C37        -3.9830    6.1080    2.6370 c3        1 MOL      0.112249
    108 C38        -4.5360    3.7860    3.5410 c3        1 MOL     -0.136398
    109 C39        -4.1980    6.8980    3.9070 c3        1 MOL     -0.313541
    110 H46        -1.6210    5.6230    1.3490 hn        1 MOL      0.228794
    111 H47        -2.8440    2.9890    1.6750 h1        1 MOL      0.091087
    112 H48        -2.6420    4.6720    3.4470 hc        1 MOL     -0.001937
    113 H49        -4.9250    6.0000    2.1080 hc        1 MOL     -0.027175
    114 H50        -3.2530    6.6860    2.0560 hc        1 MOL     -0.027175
    115 H51        -4.1960    2.7470    3.5730 hc        1 MOL      0.021137
    116 H52        -4.7230    4.1740    4.5340 hc        1 MOL      0.021137
    117 H53        -5.5160    3.7570    3.0730 hc        1 MOL      0.021137
    118 H54        -4.3300    7.9590    3.6950 hc        1 MOL      0.075011
    119 H55        -5.0940    6.4790    4.3610 hc        1 MOL      0.075011
    120 H56        -3.4250    6.7280    4.6560 hc        1 MOL      0.075011
    121 N11        -5.0230    3.1960    0.2920 n         1 MOL     -0.295948
    122 C40        -5.8850    2.9210   -0.8370 c3        1 MOL     -0.060408
    123 C41        -5.9810    1.4060   -1.1070 c         1 MOL      0.472061
    124 O16        -5.8110    0.6100   -0.1780 o         1 MOL     -0.454151
    125 C42        -7.3170    3.5230   -0.7890 c3        1 MOL      0.198188
    126 O17        -7.2500    4.6980   -1.5750 oh        1 MOL     -0.598856
    127 H57        -4.9210    2.4390    0.9570 hn        1 MOL      0.187718
    128 H58        -5.4320    3.3650   -1.7190 h1        1 MOL      0.081261
    129 H59        -7.4930    3.8240    0.2420 h1        1 MOL      0.027955
    130 H60        -8.0700    2.8400   -1.1670 h1        1 MOL      0.027955
    131 H61        -6.7300    5.3710   -1.1320 ho        1 MOL      0.406427
    132 N12        -5.8910    0.9680   -2.3720 n         1 MOL     -0.483204
    133 C43        -5.4540   -0.3670   -2.8700 c3        1 MOL      0.173984
    134 C44        -6.1600   -1.6180   -2.2010 c         1 MOL      0.394761
    135 O18        -5.6500   -2.7280   -2.2900 o         1 MOL     -0.480205
    136 C45        -3.9310   -0.3750   -2.9850 c3        1 MOL     -0.129301
    137 H62        -6.0480    1.5990   -3.1460 hn        1 MOL      0.305707
    138 H63        -5.7760   -0.3300   -3.9090 h1        1 MOL      0.029340
    139 H64        -3.5310   -0.4150   -1.9730 hc        1 MOL      0.059078
    140 H65        -3.6400   -1.1970   -3.6280 hc        1 MOL      0.059078
    141 H66        -3.6250    0.5610   -3.4550 hc        1 MOL      0.059078
    142 N13        -7.3900   -1.4110   -1.7570 n         1 MOL     -0.377557
    143 C46        -8.2280   -2.3240   -0.9370 c3        1 MOL      0.312226
    144 C47        -7.5160   -3.1620    0.1320 c         1 MOL      0.339856
    145 O19        -7.6950   -4.3650    0.1720 o         1 MOL     -0.441711
    146 C48        -9.2010   -3.1480   -1.8770 c3        1 MOL     -0.223164
    147 H67        -7.7700   -0.4930   -1.9330 hn        1 MOL      0.227464
    148 H68        -8.8500   -1.5770   -0.4520 h1        1 MOL     -0.007241
    149 H69        -9.9930   -3.6230   -1.3130 hc        1 MOL      0.057919
    150 H70        -9.5670   -2.5280   -2.6970 hc        1 MOL      0.057919
    151 H71        -8.6080   -3.9360   -2.3440 hc        1 MOL      0.057919
    152 N14        -6.6150   -2.5520    0.8890 n         1 MOL     -0.356805
    153 C49        -5.7970   -3.2710    1.9050 c3        1 MOL      0.139584
    154 C50        -6.4360   -3.4620    3.3260 c         1 MOL      0.326795
    155 O20        -6.4390   -4.5370    3.9080 o         1 MOL     -0.487309
    156 C51        -4.3940   -2.7210    2.0560 c3        1 MOL      0.361807
    157 C52        -3.2450   -3.7220    2.2030 c3        1 MOL     -0.215086
    158 C53        -2.8120   -4.4010    0.8810 c         1 MOL      0.627918
    159 O21        -1.6830   -4.0890    0.3710 o         1 MOL     -0.682890
    160 O22        -3.5060   -5.2180    0.2480 o         1 MOL     -0.682890
    161 H72        -6.3720   -1.5760    0.8280 hn        1 MOL      0.143772
    162 H73        -5.6540   -4.2920    1.5530 h1        1 MOL      0.060697
    163 H74        -4.3240   -2.0070    2.8700 hc        1 MOL     -0.063254
    164 H75        -4.1720   -2.1010    1.1940 hc        1 MOL     -0.063254
    165 H76        -3.4010   -4.4860    2.9610 hc        1 MOL      0.027611
    166 H77        -2.4490   -3.0510    2.5300 hc        1 MOL      0.027611
    167 N15        -6.7720   -2.3170    3.9230 n         1 MOL     -0.233224
    168 C54        -7.3650   -2.1390    5.2760 c3        1 MOL     -0.203708
    169 H78        -8.2170   -1.4600    5.2120 h1        1 MOL      0.101671
    170 H79        -7.6980   -3.1040    5.6570 h1        1 MOL      0.101671
    171 H80        -6.6170   -1.7190    5.9490 h1        1 MOL      0.101671
    172 H81        -6.7080   -1.4590    3.3920 hn        1 MOL      0.205661
    173 Ca1        -1.4310   -5.7320   -1.5100 Ca        1 MOL      1.678889
    174 O23         0.6930   -7.2800   -2.5170 oh        1 MOL     -0.792381
    175 H82         0.3400   -8.0310   -2.9860 ho        1 MOL      0.397030
    176 H83         1.6420   -7.3540   -2.6130 ho        1 MOL      0.397030
    177 O24         0.5050   -5.9590    0.4070 oh        1 MOL     -0.792381
    178 H84         0.7930   -5.0490    0.4810 ho        1 MOL      0.397030
    179 H85         1.3070   -6.4540    0.2520 ho        1 MOL      0.397030
    180 O25        -3.2770   -7.6160   -2.5420 oh        1 MOL     -0.792381
    181 H86        -4.2060   -7.7150   -2.3330 ho        1 MOL      0.397030
    182 H87        -3.1710   -8.0490   -3.3900 ho        1 MOL      0.397030
    183 O26        -1.5440   -8.2100   -0.5710 oh        1 MOL     -0.792381
    184 H88        -2.0540   -9.0100   -0.6560 ho        1 MOL      0.397030
    185 H89        -0.6710   -8.5160   -0.3150 ho        1 MOL      0.397030
    186 O27        -1.2600   -5.9470   -4.1790 oh        1 MOL     -0.792381
    187 H90        -0.8580   -6.5850   -4.7810 ho        1 MOL      0.397030
    188 H91        -1.4720   -5.1940   -4.7250 ho        1 MOL      0.397030
    189 O28        -3.3680   -4.1500   -2.8080 oh        1 MOL     -0.792381
    190 H92        -4.1010   -3.6410   -2.4840 ho        1 MOL      0.397030
    191 H93        -3.5470   -4.2760   -3.7400 ho        1 MOL      0.397030
@<TRIPOS>BOND
     1    1    2 1   
     2    1    4 1   
     3    1    5 1   
     4    1    6 1   
     5    2    3 2   
     6    2    7 1   
     7    7    8 1   
     8    7   15 1   
     9    8    9 1   
    10    8   11 1   
    11    8   16 1   
    12    9   10 2   
    13    9   19 1   
    14   11   12 1   
    15   11   17 1   
    16   11   18 1   
    17   12   13 1   
    18   12   14 1   
    19   19   20 1   
    20   19   28 1   
    21   20   21 1   
    22   20   23 1   
    23   20   29 1   
    24   21   22 2   
    25   21   41 1   
    26   23   24 1   
    27   23   30 1   
    28   23   31 1   
    29   24   25 1   
    30   24   32 1   
    31   24   33 1   
    32   25   26 1   
    33   25   34 1   
    34   25   35 1   
    35   26   27 1   
    36   26   36 1   
    37   26   37 1   
    38   27   38 1   
    39   27   39 1   
    40   27   40 1   
    41   41   42 1   
    42   41   49 1   
    43   42   43 1   
    44   42   45 1   
    45   42   50 1   
    46   43   44 2   
    47   43   53 1   
    48   45   46 1   
    49   45   51 1   
    50   45   52 1   
    51   46   47 1   
    52   46   48 1   
    53   53   54 1   
    54   53   57 1   
    55   54   55 1   
    56   54   58 1   
    57   54   59 1   
    58   55   56 2   
    59   55   60 1   
    60   60   61 1   
    61   60   68 1   
    62   61   62 1   
    63   61   64 1   
    64   61   69 1   
    65   62   63 2   
    66   62   74 1   
    67   64   65 1   
    68   64   70 1   
    69   64   71 1   
    70   65   66 1   
    71   65   67 2   
    72   66   72 1   
    73   66   73 1   
    74   74   75 1   
    75   74   78 1   
    76   75   76 1   
    77   75   79 1   
    78   75   80 1   
    79   76   77 2   
    80   76   81 1   
    81   81   82 1   
    82   81   93 1   
    83   82   83 1   
    84   82   85 1   
    85   82   94 1   
    86   83   84 2   
    87   83  102 1   
    88   85   86 1   
    89   85   95 1   
    90   85   96 1   
    91   86   87 ar  
    92   86   88 ar  
    93   87   89 ar  
    94   87   97 1   
    95   88   90 ar  
    96   88   98 1   
    97   89   91 ar  
    98   89   99 1   
    99   90   91 ar  
   100   90  100 1   
   101   91   92 1   
   102   92  101 1   
   103  102  103 1   
   104  102  110 1   
   105  103  104 1   
   106  103  106 1   
   107  103  111 1   
   108  104  105 2   
   109  104  121 1   
   110  106  107 1   
   111  106  108 1   
   112  106  112 1   
   113  107  109 1   
   114  107  113 1   
   115  107  114 1   
   116  108  115 1   
   117  108  116 1   
   118  108  117 1   
   119  109  118 1   
   120  109  119 1   
   121  109  120 1   
   122  121  122 1   
   123  121  127 1   
   124  122  123 1   
   125  122  125 1   
   126  122  128 1   
   127  123  124 2   
   128  123  132 1   
   129  125  126 1   
   130  125  129 1   
   131  125  130 1   
   132  126  131 1   
   133  132  133 1   
   134  132  137 1   
   135  133  134 1   
   136  133  136 1   
   137  133  138 1   
   138  134  135 2   
   139  134  142 1   
   140  136  139 1   
   141  136  140 1   
   142  136  141 1   
   143  142  143 1   
   144  142  147 1   
   145  143  144 1   
   146  143  146 1   
   147  143  148 1   
   148  144  145 2   
   149  144  152 1   
   150  146  149 1   
   151  146  150 1   
   152  146  151 1   
   153  152  153 1   
   154  152  161 1   
   155  153  154 1   
   156  153  156 1   
   157  153  162 1   
   158  154  155 2   
   159  154  167 1   
   160  156  157 1   
   161  156  163 1   
   162  156  164 1   
   163  157  158 1   
   164  157  165 1   
   165  157  166 1   
   166  158  159 1   
   167  158  160 1   
   168  167  168 1   
   169  167  172 1   
   170  168  169 1   
   171  168  170 1   
   172  168  171 1   
   173  174  175 1   
   174  174  176 1   
   175  177  178 1   
   176  177  179 1   
   177  180  181 1   
   178  180  182 1   
   179  183  184 1   
   180  183  185 1   
   181  186  187 1   
   182  186  188 1   
   183  189  190 1   
   184  189  191 1   
@<TRIPOS>SUBSTRUCTURE
     1 MOL         1 TEMP              0 ****  ****    0 ROOT
