@<TRIPOS>MOLECULE
MOL
  178   175     1     0     0
SMALL
resp


@<TRIPOS>ATOM
      1 C1         -2.0130   -4.9420   -3.2300 c3        1 MOL     -0.389095
      2 C2         -3.2670   -5.3320   -2.4610 c         1 MOL      0.668659
      3 O1         -3.1670   -5.9460   -1.4220 o         1 MOL     -0.545881
      4 H1         -1.9920   -3.8600   -3.3650 hc        1 MOL      0.093062
      5 H2         -1.1310   -5.2540   -2.6710 hc        1 MOL      0.093062
      6 H3         -2.0170   -5.4300   -4.2050 hc        1 MOL      0.093062
      7 N1         -4.4410   -5.1130   -3.0990 n         1 MOL     -0.529361
      8 C3         -5.7050   -5.1610   -2.3830 c3        1 MOL      0.048094
      9 C4         -5.7140   -4.1390   -1.2340 c         1 MOL      0.543100
     10 O2         -5.8750   -2.9280   -1.5030 o         1 MOL     -0.524884
     11 C5         -6.8280   -4.9330   -3.5090 c3        1 MOL     -0.332538
     12 C6         -8.2710   -4.8070   -3.0150 c         1 MOL      0.831562
     13 O3         -8.6440   -5.5400   -2.1040 o         1 MOL     -0.762637
     14 O4         -9.0320   -3.9870   -3.5350 o         1 MOL     -0.762637
     15 H4         -4.3840   -4.5180   -3.9110 hn        1 MOL      0.297944
     16 H5         -5.7180   -6.1890   -2.0160 h1        1 MOL      0.091593
     17 H6         -6.7440   -5.7310   -4.2440 hc        1 MOL      0.053569
     18 H7         -6.5390   -4.0710   -4.1180 hc        1 MOL      0.053569
     19 N2         -5.6960   -4.5130    0.0490 n         1 MOL     -0.555688
     20 C7         -5.5890   -3.7560    1.2840 c3        1 MOL      0.741727
     21 C8         -4.1820   -3.8520    1.9280 c         1 MOL      0.324786
     22 O5         -3.6060   -4.9100    1.8740 o         1 MOL     -0.529542
     23 C9         -6.6910   -4.3770    2.1580 c3        1 MOL     -0.422047
     24 H8         -5.4060   -5.4730    0.1870 hn        1 MOL      0.227383
     25 H9         -5.8330   -2.7240    1.0230 h1        1 MOL     -0.073297
     26 H10        -6.4960   -5.4240    2.4080 hc        1 MOL      0.087703
     27 H11        -6.6780   -3.8460    3.1130 hc        1 MOL      0.087703
     28 H12        -7.6770   -4.3080    1.6950 hc        1 MOL      0.087703
     29 N3         -3.6460   -2.9010    2.6290 n         1 MOL     -0.471756
     30 C10        -4.2290   -1.6370    3.1510 c3        1 MOL      0.179489
     31 C11        -3.7560   -0.4020    2.3940 c         1 MOL      0.360828
     32 O6         -2.7440   -0.5240    1.6140 o         1 MOL     -0.559081
     33 C12        -3.9050   -1.4470    4.6710 c3        1 MOL     -0.129411
     34 C13        -2.4200   -1.8130    5.0030 c         1 MOL      0.599125
     35 O7         -2.1980   -2.7900    5.7560 o         1 MOL     -0.653193
     36 O8         -1.4420   -1.1650    4.4750 o         1 MOL     -0.653193
     37 H13        -2.7150   -3.0980    2.9640 hn        1 MOL      0.384672
     38 H14        -5.3000   -1.6720    2.9960 h1        1 MOL     -0.013767
     39 H15        -4.5380   -2.1480    5.2110 hc        1 MOL      0.007649
     40 H16        -4.1770   -0.4350    4.9820 hc        1 MOL      0.007649
     41 N4         -4.5390    0.6540    2.5570 n         1 MOL     -0.510914
     42 C14        -4.6270    1.6150    1.5060 c3        1 MOL      0.105047
     43 C15        -5.6040    1.1620    0.4250 c         1 MOL      0.631443
     44 O9         -5.8740   -0.0410    0.2130 o         1 MOL     -0.502354
     45 H17        -5.1820    0.6680    3.3350 hn        1 MOL      0.340496
     46 H18        -3.6370    1.8790    1.1220 h1        1 MOL      0.046150
     47 H19        -5.1060    2.4100    2.0780 h1        1 MOL      0.046150
     48 N5         -6.1320    2.0530   -0.3820 n         1 MOL     -0.617008
     49 C16        -6.0310    3.4830   -0.3430 c3        1 MOL      0.166183
     50 C17        -5.4340    4.0320   -1.6820 c         1 MOL      0.467312
     51 O10        -5.8010    3.5840   -2.8010 o         1 MOL     -0.489868
     52 C18        -7.3650    4.1430    0.0190 c3        1 MOL     -0.089215
     53 C19        -7.9570    3.7860    1.3340 c         1 MOL      0.641498
     54 N6         -8.9210    2.8830    1.2630 n         1 MOL     -0.823429
     55 O11        -7.4050    4.0990    2.3970 o         1 MOL     -0.549942
     56 H20        -6.5800    1.6040   -1.1630 hn        1 MOL      0.351533
     57 H21        -5.4040    3.7390    0.5130 h1        1 MOL     -0.033167
     58 H22        -8.0590    4.1610   -0.8130 hc        1 MOL      0.011764
     59 H23        -6.9910    5.1690    0.1260 hc        1 MOL      0.011764
     60 H24        -9.1760    2.4640    0.3870 hn        1 MOL      0.392480
     61 H25        -9.2310    2.4450    2.1120 hn        1 MOL      0.392480
     62 N7         -4.5180    5.0100   -1.5800 n         1 MOL     -0.296312
     63 C20        -3.8720    5.5940   -2.7620 c3        1 MOL     -0.202346
     64 C21        -2.4570    6.0700   -2.5510 c         1 MOL      0.591541
     65 O12        -2.0300    7.0350   -3.1820 o         1 MOL     -0.562650
     66 H26        -4.4530    5.4600   -0.6770 hn        1 MOL      0.289335
     67 H27        -4.4760    6.4460   -3.0590 h1        1 MOL      0.128784
     68 H28        -3.7920    4.8640   -3.5730 h1        1 MOL      0.128784
     69 N8         -1.7730    5.4900   -1.5680 n         1 MOL     -0.406892
     70 C22        -0.3900    5.8370   -1.3430 c3        1 MOL      0.053445
     71 C23         0.4460    4.5500   -1.1760 c         1 MOL      0.417424
     72 O13        -0.1240    3.4300   -1.0760 o         1 MOL     -0.468775
     73 C24        -0.2210    6.6700   -0.0670 c3        1 MOL      0.556092
     74 C25        -0.8960    8.0340   -0.1740 c3        1 MOL     -0.387905
     75 O14        -0.7170    6.1160    1.1330 oh        1 MOL     -0.643072
     76 H29        -2.1980    4.7690   -0.9930 hn        1 MOL      0.190566
     77 H30         0.0810    6.4160   -2.1340 h1        1 MOL      0.050802
     78 H31         0.8230    6.9470    0.0680 h1        1 MOL     -0.073886
     79 H32        -0.0110    5.5680    1.4780 ho        1 MOL      0.411613
     80 H33        -0.5250    8.5250   -1.0710 hc        1 MOL      0.087408
     81 H34        -1.9730    7.9060   -0.2050 hc        1 MOL      0.087408
     82 H35        -0.6450    8.5340    0.7640 hc        1 MOL      0.087408
     83 N9          1.7810    4.6720   -1.1120 n         1 MOL     -0.292820
     84 C26         2.8160    3.6580   -1.0670 c3        1 MOL     -0.094107
     85 C27         3.5300    3.8200    0.3010 c         1 MOL      0.227331
     86 O15         3.8730    4.9180    0.7470 o         1 MOL     -0.527851
     87 C28         3.8580    3.8890   -2.1880 c3        1 MOL      0.164420
     88 C29         5.0270    2.9650   -2.1960 c3        1 MOL      0.093683
     89 C30         3.1700    3.7570   -3.5790 c3        1 MOL     -0.371148
     90 C31         6.1780    3.3840   -3.1080 c3        1 MOL     -0.120419
     91 H36         2.2350    5.5610   -1.2870 hn        1 MOL      0.216994
     92 H37         2.3830    2.6640   -1.1340 h1        1 MOL      0.204647
     93 H38         4.2500    4.9070   -2.1650 hc        1 MOL      0.039815
     94 H39         4.7380    1.9120   -2.3160 hc        1 MOL     -0.026817
     95 H40         5.5760    2.9590   -1.2560 hc        1 MOL     -0.026817
     96 H41         3.9770    4.0220   -4.2610 hc        1 MOL      0.080107
     97 H42         2.6200    2.8220   -3.7240 hc        1 MOL      0.080107
     98 H43         2.4700    4.5830   -3.7100 hc        1 MOL      0.080107
     99 H44         6.0120    3.0090   -4.1150 hc        1 MOL      0.018017
    100 H45         6.2790    4.4690   -3.1130 hc        1 MOL      0.018017
    101 H46         7.0460    2.8230   -2.7590 hc        1 MOL      0.018017
    102 N10         3.8230    2.6250    0.8160 n         1 MOL      0.013397
    103 C32         4.5880    2.4000    2.0410 c3        1 MOL     -0.026653
    104 C33         5.6300    1.2910    2.0090 c         1 MOL      0.349075
    105 O16         6.4100    1.1110    2.9650 o         1 MOL     -0.495407
    106 C34         3.5860    2.2610    3.1680 c3        1 MOL     -0.060949
    107 C35         2.2740    1.5270    2.8030 c         1 MOL      0.689540
    108 O17         2.1110    0.3270    3.1570 o         1 MOL     -0.770201
    109 O18         1.3100    2.0990    2.2320 o         1 MOL     -0.770201
    110 H47         3.5060    1.7910    0.3420 hn        1 MOL      0.302987
    111 H48         5.0640    3.3590    2.2450 h1        1 MOL      0.084492
    112 H49         3.3210    3.2820    3.4450 hc        1 MOL      0.027153
    113 H50         4.0570    1.7980    4.0420 hc        1 MOL      0.027153
    114 N11         5.6510    0.5500    0.8950 n         1 MOL     -0.358968
    115 C36         6.5060   -0.6130    0.7770 c3        1 MOL      0.512304
    116 C37         5.9720   -1.9240    0.1700 c         1 MOL      0.224694
    117 O19         6.3440   -2.2790   -1.0120 o         1 MOL     -0.462151
    118 C38         7.8380   -0.1730    0.2660 c3        1 MOL     -0.449310
    119 C39         8.9420   -1.1240    0.5680 ca        1 MOL      0.185721
    120 C40         9.5910   -1.8600   -0.4710 ca        1 MOL     -0.175180
    121 C41         9.4460   -1.2650    1.8670 ca        1 MOL     -0.175180
    122 C42        10.6580   -2.7680   -0.1880 ca        1 MOL     -0.140327
    123 C43        10.4860   -2.1960    2.1790 ca        1 MOL     -0.140327
    124 C44        11.0930   -2.8950    1.0970 ca        1 MOL     -0.098878
    125 H51         4.9400    0.6670    0.1890 hn        1 MOL      0.095394
    126 H52         6.8250   -0.8740    1.7900 h1        1 MOL     -0.040666
    127 H53         8.0520    0.7790    0.7480 hc        1 MOL      0.129590
    128 H54         7.7790   -0.0310   -0.8160 hc        1 MOL      0.129590
    129 H55         9.1760   -1.7640   -1.4640 ha        1 MOL      0.124544
    130 H56         8.9900   -0.7030    2.6680 ha        1 MOL      0.124544
    131 H57        11.1220   -3.3890   -0.9340 ha        1 MOL      0.115967
    132 H58        10.8130   -2.2880    3.2040 ha        1 MOL      0.115967
    133 H59        11.9460   -3.5190    1.3230 ha        1 MOL      0.084075
    134 N12         4.9640   -2.5240    0.8400 n         1 MOL     -0.080168
    135 C45         4.1890   -3.6940    0.3140 c3        1 MOL     -0.001745
    136 C46         3.7290   -3.5670   -1.0990 c         1 MOL      0.128676
    137 O20         3.7160   -4.6440   -1.8060 o         1 MOL     -0.465429
    138 C47         2.9560   -3.8050    1.2720 c3        1 MOL      0.161648
    139 C48         3.5780   -3.3670    2.6320 c3        1 MOL     -0.145506
    140 C49         4.4780   -2.1440    2.1810 c3        1 MOL     -0.103267
    141 H60         4.6850   -4.6620    0.3940 h1        1 MOL      0.080203
    142 H61         2.1530   -3.1390    0.9500 hc        1 MOL     -0.000046
    143 H62         2.5100   -4.7990    1.3110 hc        1 MOL     -0.000046
    144 H63         2.8460   -3.1120    3.3920 hc        1 MOL      0.055901
    145 H64         4.1880   -4.2320    2.9010 hc        1 MOL      0.055901
    146 H65         3.8540   -1.2880    1.9300 h1        1 MOL      0.110384
    147 H66         5.3400   -2.0220    2.8400 h1        1 MOL      0.110384
    148 N13         3.2950   -2.4130   -1.6750 n         1 MOL      0.079143
    149 C50         2.7260   -2.1830   -3.0540 c3        1 MOL     -0.226483
    150 C51         3.7650   -2.5820   -4.0550 c         1 MOL      0.381302
    151 O21         3.5240   -3.3760   -4.9450 o         1 MOL     -0.520025
    152 C52         2.3910   -0.6430   -3.1790 c3        1 MOL      0.185029
    153 C53         1.3840    0.0080   -2.2350 c3        1 MOL     -0.245219
    154 C54         1.7580   -0.1920   -0.8010 c         1 MOL      0.414970
    155 O22         0.9630   -0.7820   -0.0270 o         1 MOL     -0.680154
    156 O23         2.9060    0.1890   -0.3840 o         1 MOL     -0.680154
    157 H67         3.4080   -1.5880   -1.1000 hn        1 MOL      0.275320
    158 H68         1.7870   -2.7350   -3.0540 h1        1 MOL      0.142486
    159 H69         1.8880   -0.5430   -4.1400 hc        1 MOL     -0.032490
    160 H70         3.2590    0.0110   -3.2310 hc        1 MOL     -0.032490
    161 H71         0.4830   -0.5480   -2.5100 hc        1 MOL      0.092838
    162 H72         1.1380    1.0550   -2.3870 hc        1 MOL      0.092838
    163 N14         4.9530   -2.1700   -3.7800 n         1 MOL      0.002216
    164 C55         6.0640   -2.4310   -4.5910 c3        1 MOL     -0.290475
    165 H73         6.5920   -1.4990   -4.7930 h1        1 MOL      0.095858
    166 H74         6.7330   -3.1240   -4.0810 h1        1 MOL      0.095858
    167 H75         5.7320   -2.8710   -5.5310 h1        1 MOL      0.095858
    168 H76         5.1630   -1.7310   -2.8900 hn        1 MOL      0.124304
    169 Ca1        -0.2310   -0.0920    2.1660 Ca        1 MOL      1.712910
    170 O24        -1.6530    1.7320    3.4230 oh        1 MOL     -0.792220
    171 H77        -1.8170    1.6170    4.3510 ho        1 MOL      0.391733
    172 H78        -2.1850    2.4900    3.1710 ho        1 MOL      0.391733
    173 O25         0.0410   -2.7490    2.3600 oh        1 MOL     -0.792220
    174 H79         0.4410   -3.0050    1.5300 ho        1 MOL      0.391733
    175 H80         0.0740   -3.5320    2.8960 ho        1 MOL      0.391733
    176 O26        -1.0910    1.4830    0.2600 oh        1 MOL     -0.792220
    177 H81        -1.6790    1.0280   -0.3410 ho        1 MOL      0.391733
    178 H82        -0.6500    2.1310   -0.2870 ho        1 MOL      0.391733
@<TRIPOS>BOND
     1    1    2 1   
     2    1    4 1   
     3    1    5 1   
     4    1    6 1   
     5    2    3 2   
     6    2    7 1   
     7    7    8 1   
     8    7   15 1   
     9    8    9 1   
    10    8   11 1   
    11    8   16 1   
    12    9   10 2   
    13    9   19 1   
    14   11   12 1   
    15   11   17 1   
    16   11   18 1   
    17   12   13 1   
    18   12   14 1   
    19   19   20 1   
    20   19   24 1   
    21   20   21 1   
    22   20   23 1   
    23   20   25 1   
    24   21   22 2   
    25   21   29 1   
    26   23   26 1   
    27   23   27 1   
    28   23   28 1   
    29   29   30 1   
    30   29   37 1   
    31   30   31 1   
    32   30   33 1   
    33   30   38 1   
    34   31   32 2   
    35   31   41 1   
    36   33   34 1   
    37   33   39 1   
    38   33   40 1   
    39   34   35 1   
    40   34   36 1   
    41   41   42 1   
    42   41   45 1   
    43   42   43 1   
    44   42   46 1   
    45   42   47 1   
    46   43   44 2   
    47   43   48 1   
    48   48   49 1   
    49   48   56 1   
    50   49   50 1   
    51   49   52 1   
    52   49   57 1   
    53   50   51 2   
    54   50   62 1   
    55   52   53 1   
    56   52   58 1   
    57   52   59 1   
    58   53   54 1   
    59   53   55 2   
    60   54   60 1   
    61   54   61 1   
    62   62   63 1   
    63   62   66 1   
    64   63   64 1   
    65   63   67 1   
    66   63   68 1   
    67   64   65 2   
    68   64   69 1   
    69   69   70 1   
    70   69   76 1   
    71   70   71 1   
    72   70   73 1   
    73   70   77 1   
    74   71   72 2   
    75   71   83 1   
    76   73   74 1   
    77   73   75 1   
    78   73   78 1   
    79   74   80 1   
    80   74   81 1   
    81   74   82 1   
    82   75   79 1   
    83   83   84 1   
    84   83   91 1   
    85   84   85 1   
    86   84   87 1   
    87   84   92 1   
    88   85   86 2   
    89   85  102 1   
    90   87   88 1   
    91   87   89 1   
    92   87   93 1   
    93   88   90 1   
    94   88   94 1   
    95   88   95 1   
    96   89   96 1   
    97   89   97 1   
    98   89   98 1   
    99   90   99 1   
   100   90  100 1   
   101   90  101 1   
   102  102  103 1   
   103  102  110 1   
   104  103  104 1   
   105  103  106 1   
   106  103  111 1   
   107  104  105 2   
   108  104  114 1   
   109  106  107 1   
   110  106  112 1   
   111  106  113 1   
   112  107  108 1   
   113  107  109 1   
   114  114  115 1   
   115  114  125 1   
   116  115  116 1   
   117  115  118 1   
   118  115  126 1   
   119  116  117 2   
   120  116  134 1   
   121  118  119 1   
   122  118  127 1   
   123  118  128 1   
   124  119  120 ar  
   125  119  121 ar  
   126  120  122 ar  
   127  120  129 1   
   128  121  123 ar  
   129  121  130 1   
   130  122  124 ar  
   131  122  131 1   
   132  123  124 ar  
   133  123  132 1   
   134  124  133 1   
   135  134  135 1   
   136  134  140 1   
   137  135  136 1   
   138  135  138 1   
   139  135  141 1   
   140  136  137 2   
   141  136  148 1   
   142  138  139 1   
   143  138  142 1   
   144  138  143 1   
   145  139  140 1   
   146  139  144 1   
   147  139  145 1   
   148  140  146 1   
   149  140  147 1   
   150  148  149 1   
   151  148  157 1   
   152  149  150 1   
   153  149  152 1   
   154  149  158 1   
   155  150  151 2   
   156  150  163 1   
   157  152  153 1   
   158  152  159 1   
   159  152  160 1   
   160  153  154 1   
   161  153  161 1   
   162  153  162 1   
   163  154  155 1   
   164  154  156 1   
   165  163  164 1   
   166  163  168 1   
   167  164  165 1   
   168  164  166 1   
   169  164  167 1   
   170  170  171 1   
   171  170  172 1   
   172  173  174 1   
   173  173  175 1   
   174  176  177 1   
   175  176  178 1   
@<TRIPOS>SUBSTRUCTURE
     1 MOL         1 TEMP              0 ****  ****    0 ROOT
