@<TRIPOS>MOLECULE
MOL
  182   178     1     0     0
SMALL
resp


@<TRIPOS>ATOM
      1 C1          0.4480   -4.1950    5.6260 c3        1 MOL     -0.419583
      2 C2          0.5490   -3.9300    4.1370 c         1 MOL      0.757097
      3 O1         -0.4100   -4.1350    3.3440 o         1 MOL     -0.572063
      4 H1         -0.6020   -4.2690    5.9100 hc        1 MOL      0.119786
      5 H2          0.9560   -5.1290    5.8650 hc        1 MOL      0.119786
      6 H3          0.9150   -3.3760    6.1740 hc        1 MOL      0.119786
      7 N1          1.7810   -3.6120    3.7080 n         1 MOL     -0.528927
      8 C3          2.2400   -3.3680    2.3350 c3        1 MOL     -0.048105
      9 C4          2.3370   -4.6610    1.5410 c         1 MOL      0.551790
     10 O2          2.7400   -5.7450    1.9810 o         1 MOL     -0.571453
     11 C5          3.5820   -2.5780    2.4310 c3        1 MOL      0.049773
     12 C6          3.7280   -1.5850    1.3180 c         1 MOL      0.594952
     13 O3          4.0200   -0.4070    1.4240 o         1 MOL     -0.649256
     14 O4          3.5060   -2.0610    0.2200 o         1 MOL     -0.649256
     15 H4          2.3820   -3.3450    4.4740 hn        1 MOL      0.313893
     16 H5          1.5140   -2.8240    1.7230 h1        1 MOL     -0.089584
     17 H6          4.4620   -3.2170    2.5720 hc        1 MOL      0.036176
     18 H7          3.5440   -1.9920    3.3500 hc        1 MOL      0.036176
     19 N2          2.0470   -4.6210    0.2810 n         1 MOL     -0.215160
     20 C7          2.2790   -5.5970   -0.7950 c3        1 MOL     -0.084856
     21 C8          3.4290   -5.2790   -1.6800 c         1 MOL      0.523742
     22 O5          3.7800   -6.0590   -2.5840 o         1 MOL     -0.577050
     23 C9          0.9660   -5.6000   -1.6350 c3        1 MOL      0.070604
     24 C10        -0.2530   -6.3160   -1.1180 c3        1 MOL      0.206730
     25 C11        -1.4390   -6.1280   -2.0630 c3        1 MOL      0.095368
     26 C12        -2.6360   -6.9960   -1.6910 c3        1 MOL     -0.023828
     27 N3         -3.8220   -6.6460   -2.4910 n4        1 MOL     -0.087387
     28 H8          1.9040   -3.6590   -0.0020 hn        1 MOL      0.182326
     29 H9          2.4520   -6.5750   -0.3500 h1        1 MOL      0.119504
     30 H10         1.2590   -6.1900   -2.5020 hc        1 MOL     -0.034523
     31 H11         0.6780   -4.5680   -1.8130 hc        1 MOL     -0.034523
     32 H12        -0.5710   -5.8740   -0.1720 hc        1 MOL     -0.043927
     33 H13        -0.1070   -7.3800   -0.9680 hc        1 MOL     -0.043927
     34 H14        -1.1160   -6.3900   -3.0750 hc        1 MOL     -0.035967
     35 H15        -1.7250   -5.0830   -2.0490 hc        1 MOL     -0.035967
     36 H16        -2.8690   -6.7620   -0.6560 hx        1 MOL      0.073272
     37 H17        -2.3230   -8.0320   -1.8030 hx        1 MOL      0.073272
     38 H18        -4.2400   -5.7310   -2.3420 hn        1 MOL      0.219537
     39 H19        -3.4830   -6.6260   -3.4410 hn        1 MOL      0.219537
     40 H20        -4.5730   -7.3210   -2.4550 hn        1 MOL      0.219537
     41 N4          4.1030   -4.1720   -1.5690 n         1 MOL     -0.372390
     42 C13         5.2590   -3.7040   -2.4080 c3        1 MOL      0.065139
     43 C14         6.3570   -3.0750   -1.5600 c         1 MOL      0.389431
     44 O6          7.4720   -2.7310   -2.0480 o         1 MOL     -0.581043
     45 C15         4.7650   -2.7340   -3.4770 c3        1 MOL     -0.305594
     46 C16         4.1020   -1.4660   -2.8720 c         1 MOL      0.775576
     47 O7          4.8090   -0.6490   -2.2360 o         1 MOL     -0.765621
     48 O8          2.8690   -1.3220   -2.8860 o         1 MOL     -0.765621
     49 H21         3.7210   -3.5080   -0.9050 hn        1 MOL      0.284145
     50 H22         5.6710   -4.6040   -2.8750 h1        1 MOL      0.135338
     51 H23         4.1120   -3.2900   -4.1440 hc        1 MOL      0.099595
     52 H24         5.6360   -2.4160   -4.0570 hc        1 MOL      0.099595
     53 N5          6.1480   -2.8050   -0.2880 n         1 MOL     -0.088436
     54 C17         7.1310   -2.3360    0.7060 c3        1 MOL     -0.206180
     55 C18         7.4430   -0.7700    0.6840 c         1 MOL      0.540772
     56 O9          7.8130   -0.3110    1.7800 o         1 MOL     -0.531247
     57 H25         5.1990   -2.9090    0.0370 hn        1 MOL      0.027595
     58 H26         8.0310   -2.9210    0.5190 h1        1 MOL      0.125329
     59 H27         6.8760   -2.5420    1.7450 h1        1 MOL      0.125329
     60 N6          7.2080    0.0060   -0.3740 n         1 MOL     -0.479356
     61 C19         7.4640    1.4610   -0.4570 c3        1 MOL      0.275631
     62 C20         6.2070    2.3520   -0.5790 c         1 MOL      0.612923
     63 O10         5.1290    1.8350   -0.8340 o         1 MOL     -0.515096
     64 C21         8.4720    1.8510   -1.5510 c3        1 MOL     -0.460209
     65 C22         9.8550    1.2460   -1.2320 c         1 MOL      0.815421
     66 N7         10.2640    0.1230   -1.8330 n         1 MOL     -0.904046
     67 O11        10.6240    1.7860   -0.4610 o         1 MOL     -0.574194
     68 H28         6.8220   -0.4770   -1.1740 hn        1 MOL      0.356270
     69 H29         7.9270    1.8370    0.4620 h1        1 MOL      0.008161
     70 H30         8.7540    2.8980   -1.5270 hc        1 MOL      0.106389
     71 H31         8.1090    1.4060   -2.4850 hc        1 MOL      0.106389
     72 H32         9.6310   -0.3520   -2.4570 hn        1 MOL      0.398651
     73 H33        11.0550   -0.3950   -1.4810 hn        1 MOL      0.398651
     74 N8          6.2680    3.6570   -0.4010 n         1 MOL     -0.512804
     75 C23         5.2530    4.6400   -0.7600 c3        1 MOL     -0.103659
     76 C24         4.2130    4.7090    0.3480 c         1 MOL      0.623190
     77 O12         4.5130    4.4270    1.5140 o         1 MOL     -0.491001
     78 H34         7.0960    4.1120   -0.0260 hn        1 MOL      0.339995
     79 H35         4.7340    4.3820   -1.6860 h1        1 MOL      0.089394
     80 H36         5.6160    5.6670   -0.8070 h1        1 MOL      0.089394
     81 N9          2.9540    4.9560   -0.0400 n         1 MOL     -0.499843
     82 C25         1.8100    4.7780    0.8030 c3        1 MOL     -0.210229
     83 C26         1.6700    3.3620    1.2480 c         1 MOL      0.802356
     84 O13         2.4090    2.4490    0.7800 o         1 MOL     -0.617870
     85 C27         0.5640    5.1970    0.0050 c3        1 MOL     -0.168465
     86 C28         0.3050    6.6440   -0.4080 ca        1 MOL      0.092371
     87 C29         0.5530    7.5980    0.5870 ca        1 MOL     -0.154255
     88 C30        -0.1210    7.0510   -1.7530 ca        1 MOL     -0.154255
     89 C31         0.3530    8.9600    0.3050 ca        1 MOL     -0.212903
     90 C32        -0.0900    8.4470   -2.0290 ca        1 MOL     -0.212903
     91 C33         0.1270    9.3900   -1.0150 ca        1 MOL      0.265258
     92 O14        -0.0230   10.7420   -1.3500 oh        1 MOL     -0.457641
     93 H37         2.6790    5.0420   -1.0010 hn        1 MOL      0.274139
     94 H38         1.9410    5.3970    1.6960 h1        1 MOL      0.149457
     95 H39        -0.3130    4.9800    0.6140 hc        1 MOL      0.070482
     96 H40         0.4500    4.6670   -0.9480 hc        1 MOL      0.070482
     97 H41         0.9360    7.2840    1.5490 ha        1 MOL      0.135813
     98 H42        -0.2150    6.3140   -2.5360 ha        1 MOL      0.135813
     99 H43         0.5460    9.6490    1.1170 ha        1 MOL      0.147645
    100 H44        -0.1870    8.8060   -3.0470 ha        1 MOL      0.147645
    101 H45         0.3080   11.3020   -0.6460 ho        1 MOL      0.358909
    102 N10         0.7760    3.1320    2.2420 n         1 MOL     -0.646248
    103 C34         0.3020    1.8510    2.7400 c3        1 MOL      0.080155
    104 C35         0.0080    0.7150    1.7110 c         1 MOL      0.413920
    105 O15         0.9480    0.0940    1.1190 o         1 MOL     -0.396054
    106 C36         1.2570    1.2610    3.8060 c3        1 MOL      0.326588
    107 C37         0.7930   -0.0780    4.4210 c3        1 MOL     -0.107232
    108 C38         1.4590    2.3050    4.8890 c3        1 MOL     -0.553211
    109 C39        -0.4270    0.0850    5.3910 c3        1 MOL     -0.172417
    110 H46         0.3350    3.9410    2.6390 hn        1 MOL      0.344010
    111 H47        -0.6770    2.0690    3.1690 h1        1 MOL      0.052284
    112 H48         2.1750    1.0590    3.2550 hc        1 MOL      0.000270
    113 H49         1.5510   -0.6320    4.9710 hc        1 MOL      0.030219
    114 H50         0.6590   -0.8360    3.6510 hc        1 MOL      0.030219
    115 H51         2.1860    3.0030    4.4800 hc        1 MOL      0.142181
    116 H52         0.5070    2.7710    5.1620 hc        1 MOL      0.142181
    117 H53         1.9060    1.7500    5.7170 hc        1 MOL      0.142181
    118 H54         0.0650    0.3220    6.3260 hc        1 MOL      0.044654
    119 H55        -1.0430    0.9680    5.1810 hc        1 MOL      0.044654
    120 H56        -1.1160   -0.7600    5.4050 hc        1 MOL      0.044654
    121 N11        -1.2860    0.3670    1.6700 n         1 MOL     -0.412392
    122 C40        -1.6860   -0.5810    0.6190 c3        1 MOL     -0.114571
    123 C41        -3.1370   -0.5300    0.1130 c         1 MOL      0.733114
    124 O16        -3.3710   -1.3040   -0.8550 o         1 MOL     -0.571807
    125 C42        -1.3940   -1.9750    1.1840 c3        1 MOL      0.233674
    126 O17        -2.0010   -2.0940    2.4240 oh        1 MOL     -0.559446
    127 H57        -1.9360    0.7860    2.3230 hn        1 MOL      0.278325
    128 H58        -1.1180   -0.4060   -0.3050 h1        1 MOL      0.124763
    129 H59        -0.3060   -2.0210    1.2350 h1        1 MOL      0.001771
    130 H60        -1.7380   -2.7350    0.4750 h1        1 MOL      0.001771
    131 H61        -1.6090   -2.8590    2.8450 ho        1 MOL      0.354505
    132 N12        -4.1460    0.2300    0.7020 n         1 MOL     -0.765454
    133 C43        -5.4430    0.3850    0.2620 c3        1 MOL      0.325472
    134 C44        -5.5170    1.0580   -1.1060 c         1 MOL      0.453402
    135 O18        -4.6170    1.8200   -1.5050 o         1 MOL     -0.555596
    136 C45        -6.1970    1.0910    1.4100 c3        1 MOL     -0.369946
    137 H62        -3.8920    0.5130    1.6390 hn        1 MOL      0.385368
    138 H63        -5.9040   -0.5700    0.0340 h1        1 MOL      0.054331
    139 H64        -5.8470    0.6250    2.3340 hc        1 MOL      0.109034
    140 H65        -5.9020    2.1290    1.5190 hc        1 MOL      0.109034
    141 H66        -7.2670    0.9850    1.2230 hc        1 MOL      0.109034
    142 N13        -6.4740    0.7820   -1.9640 n         1 MOL     -0.409975
    143 C46        -7.6670   -0.0290   -1.7590 c3        1 MOL      0.172880
    144 C47        -8.8850    0.5610   -2.5100 c         1 MOL      0.405440
    145 O19        -8.7660    1.1240   -3.6110 o         1 MOL     -0.543213
    146 C48        -7.4660   -1.4660   -2.3300 c3        1 MOL     -0.364591
    147 H67        -6.4150    1.3070   -2.8360 hn        1 MOL      0.294669
    148 H68        -7.8300   -0.1730   -0.6840 h1        1 MOL      0.011399
    149 H69        -7.2540   -1.3320   -3.3900 hc        1 MOL      0.107493
    150 H70        -6.5050   -1.8190   -1.9480 hc        1 MOL      0.107493
    151 H71        -8.3320   -2.0900   -2.0940 hc        1 MOL      0.107493
    152 N14       -10.0960    0.5160   -2.0060 n         1 MOL     -0.196853
    153 C49       -10.5720    0.0790   -0.7190 c3        1 MOL     -0.328632
    154 C50       -10.0610    1.0610    0.3550 c         1 MOL      0.444747
    155 O20        -9.8780    0.5860    1.5200 o         1 MOL     -0.529647
    156 C51       -12.0980   -0.1310   -0.6660 c3        1 MOL      0.023412
    157 C52       -12.5350   -0.9580    0.5660 c3        1 MOL     -0.105977
    158 C53       -13.9630   -1.4130    0.2890 c         1 MOL      0.660211
    159 O21       -14.8620   -0.8300    0.9140 o         1 MOL     -0.668912
    160 O22       -14.0930   -2.3120   -0.5910 o         1 MOL     -0.668912
    161 H72       -10.8530    0.6380   -2.6640 hn        1 MOL      0.242001
    162 H73       -10.1730   -0.9190   -0.5180 h1        1 MOL      0.186495
    163 H74       -12.3610   -0.6340   -1.5940 hc        1 MOL      0.046785
    164 H75       -12.6290    0.8290   -0.6080 hc        1 MOL      0.046785
    165 H76       -12.4520   -0.3790    1.4910 hc        1 MOL      0.026223
    166 H77       -11.8910   -1.8240    0.6110 hc        1 MOL      0.026223
    167 N15        -9.8030    2.3300    0.0390 n         1 MOL     -0.206510
    168 C54        -9.2460    3.3200    0.9560 c3        1 MOL     -0.040365
    169 H78        -9.4500    3.0160    1.9830 h1        1 MOL      0.058369
    170 H79        -8.1690    3.3900    0.8050 h1        1 MOL      0.058369
    171 H80        -9.7040    4.2900    0.7670 h1        1 MOL      0.058369
    172 H81        -9.9470    2.5700   -0.9240 hn        1 MOL      0.204804
    173 Ca1         2.7780    0.3760   -0.8080 Ca        1 MOL      1.783948
    174 O23         2.7750    2.2480   -2.8680 oh        1 MOL     -0.854593
    175 H82         2.0160    2.5840   -3.3380 ho        1 MOL      0.419208
    176 H83         3.4940    2.8080   -3.1450 ho        1 MOL      0.419208
    177 O24         0.1950    1.2940   -1.8100 oh        1 MOL     -0.854593
    178 H84        -0.4200    2.0230   -1.7260 ho        1 MOL      0.419208
    179 H85         0.1810    1.0660   -2.7360 ho        1 MOL      0.419208
    180 O25         0.6000   -1.9520   -1.4420 oh        1 MOL     -0.854593
    181 H86         1.1970   -2.1730   -2.1570 ho        1 MOL      0.419208
    182 H87        -0.2540   -2.2950   -1.7300 ho        1 MOL      0.419208
@<TRIPOS>BOND
     1    1    2 1   
     2    1    4 1   
     3    1    5 1   
     4    1    6 1   
     5    2    3 2   
     6    2    7 1   
     7    7    8 1   
     8    7   15 1   
     9    8    9 1   
    10    8   11 1   
    11    8   16 1   
    12    9   10 2   
    13    9   19 1   
    14   11   12 1   
    15   11   17 1   
    16   11   18 1   
    17   12   13 1   
    18   12   14 1   
    19   19   20 1   
    20   19   28 1   
    21   20   21 1   
    22   20   23 1   
    23   20   29 1   
    24   21   22 2   
    25   21   41 1   
    26   23   24 1   
    27   23   30 1   
    28   23   31 1   
    29   24   25 1   
    30   24   32 1   
    31   24   33 1   
    32   25   26 1   
    33   25   34 1   
    34   25   35 1   
    35   26   27 1   
    36   26   36 1   
    37   26   37 1   
    38   27   38 1   
    39   27   39 1   
    40   27   40 1   
    41   41   42 1   
    42   41   49 1   
    43   42   43 1   
    44   42   45 1   
    45   42   50 1   
    46   43   44 2   
    47   43   53 1   
    48   45   46 1   
    49   45   51 1   
    50   45   52 1   
    51   46   47 1   
    52   46   48 1   
    53   53   54 1   
    54   53   57 1   
    55   54   55 1   
    56   54   58 1   
    57   54   59 1   
    58   55   56 2   
    59   55   60 1   
    60   60   61 1   
    61   60   68 1   
    62   61   62 1   
    63   61   64 1   
    64   61   69 1   
    65   62   63 2   
    66   62   74 1   
    67   64   65 1   
    68   64   70 1   
    69   64   71 1   
    70   65   66 1   
    71   65   67 2   
    72   66   72 1   
    73   66   73 1   
    74   74   75 1   
    75   74   78 1   
    76   75   76 1   
    77   75   79 1   
    78   75   80 1   
    79   76   77 2   
    80   76   81 1   
    81   81   82 1   
    82   81   93 1   
    83   82   83 1   
    84   82   85 1   
    85   82   94 1   
    86   83   84 2   
    87   83  102 1   
    88   85   86 1   
    89   85   95 1   
    90   85   96 1   
    91   86   87 ar  
    92   86   88 ar  
    93   87   89 ar  
    94   87   97 1   
    95   88   90 ar  
    96   88   98 1   
    97   89   91 ar  
    98   89   99 1   
    99   90   91 ar  
   100   90  100 1   
   101   91   92 1   
   102   92  101 1   
   103  102  103 1   
   104  102  110 1   
   105  103  104 1   
   106  103  106 1   
   107  103  111 1   
   108  104  105 2   
   109  104  121 1   
   110  106  107 1   
   111  106  108 1   
   112  106  112 1   
   113  107  109 1   
   114  107  113 1   
   115  107  114 1   
   116  108  115 1   
   117  108  116 1   
   118  108  117 1   
   119  109  118 1   
   120  109  119 1   
   121  109  120 1   
   122  121  122 1   
   123  121  127 1   
   124  122  123 1   
   125  122  125 1   
   126  122  128 1   
   127  123  124 2   
   128  123  132 1   
   129  125  126 1   
   130  125  129 1   
   131  125  130 1   
   132  126  131 1   
   133  132  133 1   
   134  132  137 1   
   135  133  134 1   
   136  133  136 1   
   137  133  138 1   
   138  134  135 2   
   139  134  142 1   
   140  136  139 1   
   141  136  140 1   
   142  136  141 1   
   143  142  143 1   
   144  142  147 1   
   145  143  144 1   
   146  143  146 1   
   147  143  148 1   
   148  144  145 2   
   149  144  152 1   
   150  146  149 1   
   151  146  150 1   
   152  146  151 1   
   153  152  153 1   
   154  152  161 1   
   155  153  154 1   
   156  153  156 1   
   157  153  162 1   
   158  154  155 2   
   159  154  167 1   
   160  156  157 1   
   161  156  163 1   
   162  156  164 1   
   163  157  158 1   
   164  157  165 1   
   165  157  166 1   
   166  158  159 1   
   167  158  160 1   
   168  167  168 1   
   169  167  172 1   
   170  168  169 1   
   171  168  170 1   
   172  168  171 1   
   173  174  175 1   
   174  174  176 1   
   175  177  178 1   
   176  177  179 1   
   177  180  181 1   
   178  180  182 1   
@<TRIPOS>SUBSTRUCTURE
     1 MOL         1 TEMP              0 ****  ****    0 ROOT
