@<TRIPOS>MOLECULE
MOL
  182   178     1     0     0
SMALL
resp


@<TRIPOS>ATOM
      1 C1          0.3390   -4.0940    6.1930 c3        1 MOL     -0.448316
      2 C2          0.3410   -3.9870    4.6530 c         1 MOL      0.717310
      3 O1         -0.6920   -4.1260    4.0040 o         1 MOL     -0.577644
      4 H1         -0.2160   -4.9830    6.4940 hc        1 MOL      0.124464
      5 H2          1.3650   -4.1660    6.5530 hc        1 MOL      0.124464
      6 H3         -0.1350   -3.2100    6.6190 hc        1 MOL      0.124464
      7 N1          1.5160   -3.5760    4.1410 n         1 MOL     -0.585318
      8 C3          1.8240   -3.2880    2.7690 c3        1 MOL      0.004473
      9 C4          2.0940   -4.5430    1.7930 c         1 MOL      0.553468
     10 O2          2.4590   -5.5960    2.2360 o         1 MOL     -0.532227
     11 C5          3.0980   -2.5100    2.8620 c3        1 MOL      0.045715
     12 C6          3.3160   -1.5000    1.6890 c         1 MOL      0.292940
     13 O3          3.8470   -0.4080    1.9110 o         1 MOL     -0.573410
     14 O4          3.0770   -1.8140    0.5120 o         1 MOL     -0.573410
     15 H4          2.2250   -3.3490    4.8240 hn        1 MOL      0.318366
     16 H5          1.0700   -2.6910    2.2540 h1        1 MOL      0.110589
     17 H6          3.9520   -3.1790    2.8780 hc        1 MOL      0.026451
     18 H7          3.0180   -1.9500    3.7900 hc        1 MOL      0.026451
     19 N2          1.9510   -4.2840    0.4530 n         1 MOL     -0.223891
     20 C7          2.0400   -5.3350   -0.6450 c3        1 MOL     -0.146862
     21 C8          3.4030   -5.3010   -1.4690 c         1 MOL      0.597800
     22 O5          3.7480   -6.2730   -2.1340 o         1 MOL     -0.553496
     23 C9          0.8550   -5.1330   -1.5520 c3        1 MOL     -0.041236
     24 C10         0.6160   -6.3120   -2.6210 c3        1 MOL     -0.010531
     25 C11        -0.7980   -6.1680   -3.2940 c3        1 MOL     -0.203539
     26 C12        -1.8800   -6.8140   -2.5380 c3        1 MOL      0.239600
     27 N3         -3.0540   -7.0780   -3.4710 n4        1 MOL     -0.390039
     28 H8          1.7980   -3.3240    0.1800 hn        1 MOL      0.177686
     29 H9          2.0430   -6.2920   -0.1240 h1        1 MOL      0.112801
     30 H10         0.9590   -4.1700   -2.0410 hc        1 MOL      0.062047
     31 H11         0.0100   -5.0990   -0.8530 hc        1 MOL      0.062047
     32 H12         0.7010   -7.2950   -2.1620 hc        1 MOL      0.052418
     33 H13         1.3730   -6.2870   -3.4120 hc        1 MOL      0.052418
     34 H14        -0.7660   -6.7970   -4.1880 hc        1 MOL      0.061244
     35 H15        -0.9410   -5.1040   -3.4690 hc        1 MOL      0.061244
     36 H16        -2.1110   -6.2020   -1.6710 hx        1 MOL      0.027840
     37 H17        -1.5850   -7.7580   -2.0720 hx        1 MOL      0.027840
     38 H18        -2.6890   -7.4260   -4.3430 hn        1 MOL      0.291366
     39 H19        -3.6960   -7.7760   -3.1410 hn        1 MOL      0.291366
     40 H20        -3.4350   -6.1810   -3.7370 hn        1 MOL      0.291366
     41 N4          4.1980   -4.2300   -1.2750 n         1 MOL     -0.475056
     42 C13         5.4700   -3.8300   -2.0530 c3        1 MOL      0.141212
     43 C14         6.4960   -3.1110   -1.1520 c         1 MOL      0.349403
     44 O6          7.6430   -2.8240   -1.5340 o         1 MOL     -0.524124
     45 C15         5.0910   -3.1330   -3.3230 c3        1 MOL     -0.317517
     46 C16         4.5160   -1.7140   -3.0690 c         1 MOL      0.825119
     47 O7          3.8110   -1.1720   -3.9580 o         1 MOL     -0.743185
     48 O8          4.5730   -1.1300   -1.9480 o         1 MOL     -0.743185
     49 H21         3.7670   -3.5060   -0.7120 hn        1 MOL      0.183468
     50 H22         5.9620   -4.7370   -2.3810 h1        1 MOL      0.101961
     51 H23         4.4360   -3.8240   -3.8710 hc        1 MOL      0.104286
     52 H24         6.0040   -2.9560   -3.8860 hc        1 MOL      0.104286
     53 N5          5.9780   -2.7800    0.0380 n         1 MOL     -0.081764
     54 C17         6.6900   -2.2750    1.2540 c3        1 MOL     -0.327631
     55 C18         6.9960   -0.7450    1.0640 c         1 MOL      0.585419
     56 O9          7.5520   -0.1310    1.9240 o         1 MOL     -0.556673
     57 H25         5.0990   -3.2550    0.1720 hn        1 MOL      0.149382
     58 H26         7.6480   -2.7910    1.3600 h1        1 MOL      0.154259
     59 H27         6.0840   -2.4970    2.1340 h1        1 MOL      0.154259
     60 N6          6.6530   -0.0510   -0.0380 n         1 MOL     -0.189977
     61 C19         7.1580    1.2710   -0.3480 c3        1 MOL     -0.016428
     62 C20         6.0500    2.3240   -0.4810 c         1 MOL      0.589361
     63 O10         4.9210    1.8440   -0.6340 o         1 MOL     -0.647222
     64 C21         7.8940    1.0970   -1.7520 c3        1 MOL     -0.386693
     65 C22         8.6270    2.3500   -2.0620 c         1 MOL      0.694676
     66 N7          9.8340    2.3970   -1.5530 n         1 MOL     -0.761033
     67 O11         8.2190    3.2980   -2.7140 o         1 MOL     -0.598285
     68 H28         6.1660   -0.5600   -0.7680 hn        1 MOL      0.217105
     69 H29         7.8750    1.6040    0.4040 h1        1 MOL      0.054940
     70 H30         7.2440    0.7890   -2.5760 hc        1 MOL      0.130227
     71 H31         8.5820    0.2530   -1.7730 hc        1 MOL      0.130227
     72 H32        10.1640    1.6230   -1.0010 hn        1 MOL      0.357692
     73 H33        10.3420    3.2560   -1.6980 hn        1 MOL      0.357692
     74 N8          6.3370    3.5850   -0.4510 n         1 MOL     -0.281645
     75 C23         5.3740    4.7020   -0.3890 c3        1 MOL     -0.116459
     76 C24         4.3250    4.6140    0.6390 c         1 MOL      0.579670
     77 O12         4.5070    4.5170    1.8940 o         1 MOL     -0.521309
     78 H34         7.2860    3.8110   -0.1980 hn        1 MOL      0.274169
     79 H35         4.9400    4.9240   -1.3640 h1        1 MOL      0.091586
     80 H36         5.9230    5.5960   -0.0870 h1        1 MOL      0.091586
     81 N9          3.0770    4.6580    0.1370 n         1 MOL     -0.535611
     82 C25         1.8630    4.5080    0.9270 c3        1 MOL     -0.004247
     83 C26         1.6970    3.0650    1.4350 c         1 MOL      0.520511
     84 O13         2.4490    2.1690    1.0960 o         1 MOL     -0.376790
     85 C27         0.7020    5.0030    0.1130 c3        1 MOL     -0.223529
     86 C28         0.7090    6.4580   -0.4720 ca        1 MOL      0.042958
     87 C29         0.9990    7.5430    0.4120 ca        1 MOL     -0.075956
     88 C30         0.6470    6.6410   -1.8350 ca        1 MOL     -0.075956
     89 C31         1.0880    8.8550   -0.1070 ca        1 MOL     -0.313522
     90 C32         0.6790    7.9390   -2.3380 ca        1 MOL     -0.313522
     91 C33         0.8880    9.0590   -1.4980 ca        1 MOL      0.367134
     92 O14         0.8260   10.3590   -2.0320 oh        1 MOL     -0.490089
     93 H37         2.9950    4.6790   -0.8720 hn        1 MOL      0.302595
     94 H38         2.0330    5.1490    1.7920 h1        1 MOL      0.140237
     95 H39        -0.1760    5.0080    0.7550 hc        1 MOL      0.078739
     96 H40         0.4000    4.2420   -0.6180 hc        1 MOL      0.078739
     97 H41         1.0880    7.3910    1.4770 ha        1 MOL      0.113711
     98 H42         0.5300    5.7500   -2.4390 ha        1 MOL      0.113711
     99 H43         1.2330    9.7820    0.4270 ha        1 MOL      0.170769
    100 H44         0.4620    8.0680   -3.3910 ha        1 MOL      0.170769
    101 H45         1.3150   10.9290   -1.4330 ho        1 MOL      0.362893
    102 N10         0.7250    2.8800    2.3540 n         1 MOL     -0.651574
    103 C34         0.2850    1.5640    2.8030 c3        1 MOL      0.055969
    104 C35        -0.0840    0.5330    1.6780 c         1 MOL      0.437042
    105 O15         0.7690    0.0150    1.0080 o         1 MOL     -0.334763
    106 C36         1.2770    0.9540    3.8520 c3        1 MOL      0.456971
    107 C37         0.6130   -0.3240    4.4130 c3        1 MOL     -0.204333
    108 C38         1.7620    1.8680    4.9880 c3        1 MOL     -0.269769
    109 C39        -0.6830   -0.1740    5.2590 c3        1 MOL     -0.123934
    110 H46         0.2190    3.6790    2.7330 hn        1 MOL      0.342584
    111 H47        -0.6300    1.7300    3.3710 h1        1 MOL      0.037406
    112 H48         2.1940    0.6530    3.3480 hc        1 MOL     -0.046971
    113 H49         1.3930   -0.7370    5.0570 hc        1 MOL      0.058860
    114 H50         0.4140   -1.0360    3.6090 hc        1 MOL      0.058860
    115 H51         2.4190    2.6610    4.6270 hc        1 MOL      0.059422
    116 H52         0.9290    2.2760    5.5650 hc        1 MOL      0.059422
    117 H53         2.3630    1.2100    5.6260 hc        1 MOL      0.059422
    118 H54        -0.4000    0.7070    5.8340 hc        1 MOL      0.023206
    119 H55        -1.5790    0.0540    4.6810 hc        1 MOL      0.023206
    120 H56        -0.8680   -1.0450    5.8780 hc        1 MOL      0.023206
    121 N11        -1.3360    0.2080    1.5740 n         1 MOL     -0.436708
    122 C40        -1.7450   -0.8870    0.6300 c3        1 MOL      0.019251
    123 C41        -3.2350   -0.7940    0.1210 c         1 MOL      0.559504
    124 O16        -3.5890   -1.3200   -0.9630 o         1 MOL     -0.510698
    125 C42        -1.5790   -2.2190    1.3280 c3        1 MOL      0.112737
    126 O17        -0.9900   -3.2210    0.4590 oh        1 MOL     -0.765263
    127 H57        -2.0280    0.6700    2.1550 hn        1 MOL      0.257154
    128 H58        -1.0510   -0.9100   -0.2100 h1        1 MOL      0.098103
    129 H59        -2.5660   -2.5850    1.6070 h1        1 MOL      0.058630
    130 H60        -0.9070   -2.2210    2.1990 h1        1 MOL      0.058630
    131 H61        -1.5520   -3.9960    0.4830 ho        1 MOL      0.473486
    132 N12        -4.0860   -0.1300    0.9050 n         1 MOL     -0.604801
    133 C43        -5.4730    0.0140    0.5630 c3        1 MOL      0.196571
    134 C44        -5.7830    0.7720   -0.7560 c         1 MOL      0.685752
    135 O18        -4.8900    1.4830   -1.1880 o         1 MOL     -0.571465
    136 C45        -6.1170    0.7530    1.7390 c3        1 MOL     -0.449020
    137 H62        -3.8360    0.2010    1.8190 hn        1 MOL      0.347422
    138 H63        -5.9850   -0.9470    0.4900 h1        1 MOL      0.078914
    139 H64        -7.2020    0.7840    1.6400 hc        1 MOL      0.130190
    140 H65        -5.9040    0.1940    2.6480 hc        1 MOL      0.130190
    141 H66        -5.6610    1.7470    1.7040 hc        1 MOL      0.130190
    142 N13        -6.9080    0.6980   -1.4680 n         1 MOL     -0.703420
    143 C46        -8.1260   -0.1350   -1.1980 c3        1 MOL      0.249821
    144 C47        -9.4090    0.4600   -1.8660 c         1 MOL      0.430075
    145 O19        -9.4360    0.7890   -3.0160 o         1 MOL     -0.498503
    146 C48        -7.8620   -1.5960   -1.6110 c3        1 MOL      0.038930
    147 H67        -6.9320    1.2650   -2.3080 hn        1 MOL      0.360804
    148 H68        -8.3340   -0.2150   -0.1300 h1        1 MOL     -0.061135
    149 H69        -6.8930   -1.9150   -1.2250 hc        1 MOL     -0.006405
    150 H70        -8.5940   -2.2970   -1.2130 hc        1 MOL     -0.006405
    151 H71        -7.9060   -1.6990   -2.6920 hc        1 MOL     -0.006405
    152 N14       -10.5120    0.7410   -1.1280 n         1 MOL     -0.294079
    153 C49       -10.8240    0.3290    0.2810 c3        1 MOL     -0.173510
    154 C50       -10.2230    1.3500    1.3030 c         1 MOL      0.463008
    155 O20        -9.9660    1.0140    2.4360 o         1 MOL     -0.538663
    156 C51       -12.3100    0.0610    0.5590 c3        1 MOL      0.027773
    157 C52       -13.0530   -0.9440   -0.3150 c3        1 MOL     -0.149023
    158 C53       -13.4470   -0.4490   -1.6870 c         1 MOL      0.687472
    159 O21       -13.4050   -1.2800   -2.6500 o         1 MOL     -0.667213
    160 O22       -13.8460    0.7550   -1.7870 o         1 MOL     -0.667213
    161 H72       -11.2420    1.2220   -1.6360 hn        1 MOL      0.258633
    162 H73       -10.3080   -0.6090    0.5030 h1        1 MOL      0.139923
    163 H74       -12.8160    1.0260    0.5150 hc        1 MOL      0.022089
    164 H75       -12.3360   -0.4520    1.5170 hc        1 MOL      0.022089
    165 H76       -14.0250   -1.0560    0.1690 hc        1 MOL      0.027169
    166 H77       -12.5020   -1.8750   -0.3280 hc        1 MOL      0.027169
    167 N15        -9.8300    2.5290    0.8490 n         1 MOL     -0.182360
    168 C54        -9.2300    3.6240    1.5490 c3        1 MOL     -0.217882
    169 H78        -9.2390    4.5100    0.9140 h1        1 MOL      0.092349
    170 H79        -9.7930    3.8260    2.4610 h1        1 MOL      0.092349
    171 H80        -8.2010    3.3720    1.8060 h1        1 MOL      0.092349
    172 H81        -9.9410    2.8480   -0.1070 hn        1 MOL      0.227479
    173 Ca1         2.7510    0.2980   -0.8740 Ca        1 MOL      1.664172
    174 O23         0.7840    1.8980   -1.8450 oh        1 MOL     -0.827757
    175 H82         1.1730    2.3960   -2.5650 ho        1 MOL      0.410528
    176 H83        -0.1110    2.2380   -1.7790 ho        1 MOL      0.410528
    177 O24         3.5470    1.3850   -3.2440 oh        1 MOL     -0.827757
    178 H84         3.6020    0.5420   -3.6840 ho        1 MOL      0.410528
    179 H85         4.3430    1.8550   -3.5160 ho        1 MOL      0.410528
    180 O25         1.2540   -1.1900   -2.4070 oh        1 MOL     -0.827757
    181 H86         1.5270   -1.5640   -3.2410 ho        1 MOL      0.410528
    182 H87         0.4550   -1.6710   -2.1710 ho        1 MOL      0.410528
@<TRIPOS>BOND
     1    1    2 1   
     2    1    4 1   
     3    1    5 1   
     4    1    6 1   
     5    2    3 2   
     6    2    7 1   
     7    7    8 1   
     8    7   15 1   
     9    8    9 1   
    10    8   11 1   
    11    8   16 1   
    12    9   10 2   
    13    9   19 1   
    14   11   12 1   
    15   11   17 1   
    16   11   18 1   
    17   12   13 1   
    18   12   14 1   
    19   19   20 1   
    20   19   28 1   
    21   20   21 1   
    22   20   23 1   
    23   20   29 1   
    24   21   22 2   
    25   21   41 1   
    26   23   24 1   
    27   23   30 1   
    28   23   31 1   
    29   24   25 1   
    30   24   32 1   
    31   24   33 1   
    32   25   26 1   
    33   25   34 1   
    34   25   35 1   
    35   26   27 1   
    36   26   36 1   
    37   26   37 1   
    38   27   38 1   
    39   27   39 1   
    40   27   40 1   
    41   41   42 1   
    42   41   49 1   
    43   42   43 1   
    44   42   45 1   
    45   42   50 1   
    46   43   44 2   
    47   43   53 1   
    48   45   46 1   
    49   45   51 1   
    50   45   52 1   
    51   46   47 1   
    52   46   48 1   
    53   53   54 1   
    54   53   57 1   
    55   54   55 1   
    56   54   58 1   
    57   54   59 1   
    58   55   56 2   
    59   55   60 1   
    60   60   61 1   
    61   60   68 1   
    62   61   62 1   
    63   61   64 1   
    64   61   69 1   
    65   62   63 2   
    66   62   74 1   
    67   64   65 1   
    68   64   70 1   
    69   64   71 1   
    70   65   66 1   
    71   65   67 2   
    72   66   72 1   
    73   66   73 1   
    74   74   75 1   
    75   74   78 1   
    76   75   76 1   
    77   75   79 1   
    78   75   80 1   
    79   76   77 2   
    80   76   81 1   
    81   81   82 1   
    82   81   93 1   
    83   82   83 1   
    84   82   85 1   
    85   82   94 1   
    86   83   84 2   
    87   83  102 1   
    88   85   86 1   
    89   85   95 1   
    90   85   96 1   
    91   86   87 ar  
    92   86   88 ar  
    93   87   89 ar  
    94   87   97 1   
    95   88   90 ar  
    96   88   98 1   
    97   89   91 ar  
    98   89   99 1   
    99   90   91 ar  
   100   90  100 1   
   101   91   92 1   
   102   92  101 1   
   103  102  103 1   
   104  102  110 1   
   105  103  104 1   
   106  103  106 1   
   107  103  111 1   
   108  104  105 2   
   109  104  121 1   
   110  106  107 1   
   111  106  108 1   
   112  106  112 1   
   113  107  109 1   
   114  107  113 1   
   115  107  114 1   
   116  108  115 1   
   117  108  116 1   
   118  108  117 1   
   119  109  118 1   
   120  109  119 1   
   121  109  120 1   
   122  121  122 1   
   123  121  127 1   
   124  122  123 1   
   125  122  125 1   
   126  122  128 1   
   127  123  124 2   
   128  123  132 1   
   129  125  126 1   
   130  125  129 1   
   131  125  130 1   
   132  126  131 1   
   133  132  133 1   
   134  132  137 1   
   135  133  134 1   
   136  133  136 1   
   137  133  138 1   
   138  134  135 2   
   139  134  142 1   
   140  136  139 1   
   141  136  140 1   
   142  136  141 1   
   143  142  143 1   
   144  142  147 1   
   145  143  144 1   
   146  143  146 1   
   147  143  148 1   
   148  144  145 2   
   149  144  152 1   
   150  146  149 1   
   151  146  150 1   
   152  146  151 1   
   153  152  153 1   
   154  152  161 1   
   155  153  154 1   
   156  153  156 1   
   157  153  162 1   
   158  154  155 2   
   159  154  167 1   
   160  156  157 1   
   161  156  163 1   
   162  156  164 1   
   163  157  158 1   
   164  157  165 1   
   165  157  166 1   
   166  158  159 1   
   167  158  160 1   
   168  167  168 1   
   169  167  172 1   
   170  168  169 1   
   171  168  170 1   
   172  168  171 1   
   173  174  175 1   
   174  174  176 1   
   175  177  178 1   
   176  177  179 1   
   177  180  181 1   
   178  180  182 1   
@<TRIPOS>SUBSTRUCTURE
     1 MOL         1 TEMP              0 ****  ****    0 ROOT
