@<TRIPOS>MOLECULE
MOL
  182   178     1     0     0
SMALL
resp


@<TRIPOS>ATOM
      1 C1         -0.1490   -3.7380    6.1060 c3        1 MOL     -0.414701
      2 C2          0.0150   -3.5760    4.5290 c         1 MOL      0.771162
      3 O1         -0.8870   -3.4930    3.7260 o         1 MOL     -0.630926
      4 H1          0.2230   -4.7160    6.4110 hc        1 MOL      0.119216
      5 H2          0.4190   -2.9580    6.6130 hc        1 MOL      0.119216
      6 H3         -1.2020   -3.6510    6.3740 hc        1 MOL      0.119216
      7 N1          1.2720   -3.5310    4.0820 n         1 MOL     -0.676169
      8 C3          1.5840   -3.2760    2.6520 c3        1 MOL      0.277409
      9 C4          1.3870   -4.6140    1.8160 c         1 MOL      0.426994
     10 O2          1.4740   -5.7210    2.2990 o         1 MOL     -0.528189
     11 C5          2.9430   -2.5600    2.6760 c3        1 MOL     -0.152388
     12 C6          3.2480   -1.7660    1.3930 c         1 MOL      0.470118
     13 O3          4.0870   -0.8670    1.2680 o         1 MOL     -0.663473
     14 O4          2.5600   -2.0120    0.3470 o         1 MOL     -0.663473
     15 H4          1.9920   -3.5000    4.7930 hn        1 MOL      0.315510
     16 H5          0.8480   -2.5960    2.2150 h1        1 MOL     -0.035772
     17 H6          3.7010   -3.3150    2.8760 hc        1 MOL      0.080312
     18 H7          2.9800   -1.8100    3.4650 hc        1 MOL      0.080312
     19 N2          1.3850   -4.3650    0.4870 n         1 MOL     -0.236713
     20 C7          1.4030   -5.3840   -0.5770 c3        1 MOL     -0.075253
     21 C8          2.6020   -5.4130   -1.4800 c         1 MOL      0.537143
     22 O5          2.7610   -6.3660   -2.1760 o         1 MOL     -0.568325
     23 C9          0.0510   -5.3870   -1.4210 c3        1 MOL      0.093782
     24 C10        -1.1740   -5.8260   -0.5690 c3        1 MOL      0.098162
     25 C11        -2.3950   -6.1020   -1.4560 c3        1 MOL      0.047707
     26 C12        -3.5130   -6.8810   -0.7600 c3        1 MOL      0.097186
     27 N3         -4.7810   -6.9200   -1.5290 n4        1 MOL     -0.335196
     28 H8          1.4800   -3.3780    0.2930 hn        1 MOL      0.436716
     29 H9          1.4070   -6.3200   -0.0180 h1        1 MOL      0.105185
     30 H10         0.2120   -6.0870   -2.2360 hc        1 MOL     -0.042332
     31 H11        -0.1660   -4.3830   -1.7800 hc        1 MOL     -0.042332
     32 H12        -1.4710   -5.0600    0.1380 hc        1 MOL     -0.032986
     33 H13        -0.7700   -6.7210   -0.0960 hc        1 MOL     -0.032986
     34 H14        -2.1000   -6.7180   -2.3110 hc        1 MOL      0.005818
     35 H15        -2.7690   -5.1710   -1.8800 hc        1 MOL      0.005818
     36 H16        -3.6950   -6.3600    0.1850 hx        1 MOL      0.051104
     37 H17        -3.1560   -7.8810   -0.5060 hx        1 MOL      0.051104
     38 H18        -4.6350   -7.3730   -2.4240 hn        1 MOL      0.277008
     39 H19        -5.5410   -7.4320   -1.1180 hn        1 MOL      0.277008
     40 H20        -5.0850   -5.9590   -1.6350 hn        1 MOL      0.277008
     41 N4          3.5590   -4.5640   -1.2930 n         1 MOL     -0.156973
     42 C13         4.7920   -4.5360   -2.0760 c3        1 MOL      0.083671
     43 C14         5.9340   -4.2760   -1.0970 c         1 MOL      0.370411
     44 O6          6.9930   -4.9390   -1.2850 o         1 MOL     -0.535288
     45 C15         4.7200   -3.5440   -3.2740 c3        1 MOL     -0.259691
     46 C16         4.3740   -2.0930   -2.9270 c         1 MOL      0.867257
     47 O7          4.7070   -1.5610   -1.8400 o         1 MOL     -0.767279
     48 O8          3.6390   -1.4050   -3.6330 o         1 MOL     -0.767279
     49 H21         3.3670   -3.7950   -0.6680 hn        1 MOL     -0.174963
     50 H22         4.9910   -5.5240   -2.4710 h1        1 MOL      0.102595
     51 H23         4.0040   -3.9130   -4.0130 hc        1 MOL      0.074340
     52 H24         5.6250   -3.4600   -3.8660 hc        1 MOL      0.074340
     53 N5          5.6850   -3.4510   -0.0910 n         1 MOL     -0.114963
     54 C17         6.6480   -3.1940    1.0520 c3        1 MOL     -0.270270
     55 C18         7.2200   -1.8030    0.9650 c         1 MOL      0.581142
     56 O9          8.0410   -1.3220    1.7520 o         1 MOL     -0.591092
     57 H25         4.7750   -3.0190   -0.0810 hn        1 MOL      0.245515
     58 H26         7.4980   -3.8660    1.0800 h1        1 MOL      0.145504
     59 H27         6.0310   -3.2480    1.9450 h1        1 MOL      0.145504
     60 N6          6.8770   -0.9420   -0.0230 n         1 MOL     -0.169370
     61 C19         7.5170    0.3670   -0.3180 c3        1 MOL      0.034274
     62 C20         6.5130    1.5820   -0.3130 c         1 MOL      0.424846
     63 O10         5.3540    1.4300   -0.6450 o         1 MOL     -0.388685
     64 C21         8.1530    0.2460   -1.7530 c3        1 MOL     -0.344227
     65 C22         8.8770    1.5420   -2.1440 c         1 MOL      0.674323
     66 N7         10.0850    1.6090   -1.5630 n         1 MOL     -0.811368
     67 O11         8.3810    2.4670   -2.7240 o         1 MOL     -0.532680
     68 H28         6.0770   -1.1360   -0.6040 hn        1 MOL      0.087483
     69 H29         8.2770    0.5950    0.4310 h1        1 MOL      0.051568
     70 H30         7.4000    0.0020   -2.5030 hc        1 MOL      0.126624
     71 H31         8.8200   -0.6070   -1.8160 hc        1 MOL      0.126624
     72 H32        10.2640    0.9490   -0.8090 hn        1 MOL      0.364537
     73 H33        10.6630    2.4290   -1.6200 hn        1 MOL      0.364537
     74 N8          6.9430    2.7790    0.1070 n         1 MOL     -0.259880
     75 C23         6.2280    4.0440   -0.0450 c3        1 MOL     -0.453538
     76 C24         5.0100    4.1650    0.8210 c         1 MOL      0.607024
     77 O12         4.9590    3.8570    2.0190 o         1 MOL     -0.483601
     78 H34         7.8140    2.8600    0.6210 hn        1 MOL      0.284778
     79 H35         5.9710    4.1950   -1.0880 h1        1 MOL      0.196080
     80 H36         6.9100    4.8000    0.3520 h1        1 MOL      0.196080
     81 N9          3.8850    4.6660    0.2260 n         1 MOL     -0.380714
     82 C25         2.5630    4.7170    0.8110 c3        1 MOL     -0.139476
     83 C26         1.9420    3.2980    1.0590 c         1 MOL      0.729598
     84 O13         2.5300    2.3100    0.6040 o         1 MOL     -0.648528
     85 C27         1.6900    5.5860   -0.1280 c3        1 MOL     -0.099021
     86 C28         1.9810    7.0740   -0.0720 ca        1 MOL      0.066508
     87 C29         1.7900    7.9280    1.0600 ca        1 MOL     -0.176434
     88 C30         2.3740    7.6190   -1.3440 ca        1 MOL     -0.176434
     89 C31         2.0550    9.2980    0.9420 ca        1 MOL     -0.217970
     90 C32         2.5520    9.0050   -1.4160 ca        1 MOL     -0.217970
     91 C33         2.4130    9.8480   -0.2990 ca        1 MOL      0.299500
     92 O14         2.7110   11.1580   -0.4370 oh        1 MOL     -0.469569
     93 H37         3.8340    4.8040   -0.7670 hn        1 MOL      0.245291
     94 H38         2.8420    5.1360    1.7780 h1        1 MOL      0.119811
     95 H39         0.6380    5.4580    0.0920 hc        1 MOL      0.050286
     96 H40         1.8180    5.2200   -1.1410 hc        1 MOL      0.050286
     97 H41         1.2820    7.4670    1.9020 ha        1 MOL      0.137683
     98 H42         2.4980    7.0790   -2.2660 ha        1 MOL      0.137683
     99 H43         1.8970    9.9660    1.7660 ha        1 MOL      0.146915
    100 H44         2.8560    9.4520   -2.3500 ha        1 MOL      0.146915
    101 H45         2.3450   11.6740    0.2900 ho        1 MOL      0.370501
    102 N10         0.7970    3.1440    1.7240 n         1 MOL     -0.607384
    103 C34         0.1890    1.8620    2.2430 c3        1 MOL      0.069015
    104 C35        -0.0730    0.8030    1.1480 c         1 MOL      0.328672
    105 O15         0.9420    0.2650    0.5880 o         1 MOL     -0.310560
    106 C36         1.0030    1.2580    3.4120 c3        1 MOL      0.184331
    107 C37         0.4650   -0.0660    4.1030 c3        1 MOL     -0.138419
    108 C38         1.4370    2.3040    4.4480 c3        1 MOL     -0.331801
    109 C39        -0.6520   -0.0020    5.1890 c3        1 MOL     -0.269080
    110 H46         0.2360    3.9830    1.8120 hn        1 MOL      0.322767
    111 H47        -0.7550    2.2150    2.6630 h1        1 MOL      0.067103
    112 H48         1.9480    0.9040    2.9920 hc        1 MOL      0.075909
    113 H49         1.4020   -0.4960    4.4650 hc        1 MOL      0.071274
    114 H50         0.0960   -0.7520    3.3460 hc        1 MOL      0.071274
    115 H51         2.0880    3.0780    4.0520 hc        1 MOL      0.086959
    116 H52         0.5780    2.7510    4.9530 hc        1 MOL      0.086959
    117 H53         2.0270    1.7480    5.1820 hc        1 MOL      0.086959
    118 H54        -0.2980    0.5690    6.0460 hc        1 MOL      0.073967
    119 H55        -1.5960    0.4190    4.8690 hc        1 MOL      0.073967
    120 H56        -0.8510   -1.0320    5.4810 hc        1 MOL      0.073967
    121 N11        -1.3230    0.3250    0.8970 n         1 MOL     -0.330100
    122 C40        -1.5710   -0.6260   -0.2320 c3        1 MOL     -0.126745
    123 C41        -3.0090   -0.7410   -0.7770 c         1 MOL      0.579327
    124 O16        -3.3960   -1.6830   -1.5210 o         1 MOL     -0.542527
    125 C42        -1.2600   -2.0360    0.3140 c3        1 MOL      0.442018
    126 O17        -2.2390   -2.5630    1.1360 oh        1 MOL     -0.630838
    127 H57        -2.1670    0.7460    1.2760 hn        1 MOL      0.243975
    128 H58        -0.8670   -0.3440   -1.0210 h1        1 MOL      0.064330
    129 H59        -0.2570   -2.1120    0.7200 h1        1 MOL     -0.107140
    130 H60        -1.2600   -2.7290   -0.5220 h1        1 MOL     -0.107140
    131 H61        -1.8110   -3.0970    1.8150 ho        1 MOL      0.437441
    132 N12        -3.8540    0.1690   -0.2900 n         1 MOL     -0.521810
    133 C43        -5.3160    0.2200   -0.4780 c3        1 MOL      0.151199
    134 C44        -5.6350    0.9670   -1.7620 c         1 MOL      0.623731
    135 O18        -4.7980    1.6860   -2.2950 o         1 MOL     -0.580255
    136 C45        -5.9490    0.7520    0.8170 c3        1 MOL     -0.231227
    137 H62        -3.4840    0.7390    0.4600 hn        1 MOL      0.282821
    138 H63        -5.6440   -0.7990   -0.6770 h1        1 MOL      0.090739
    139 H64        -5.6150    0.2030    1.6960 hc        1 MOL      0.080863
    140 H65        -5.6930    1.8040    0.9210 hc        1 MOL      0.080863
    141 H66        -7.0330    0.6290    0.8410 hc        1 MOL      0.080863
    142 N13        -6.7630    0.8590   -2.4460 n         1 MOL     -0.602281
    143 C46        -8.0090    0.2490   -1.9970 c3        1 MOL      0.236028
    144 C47        -9.2780    0.9180   -2.6590 c         1 MOL      0.408376
    145 O19        -9.3210    1.0830   -3.8140 o         1 MOL     -0.514633
    146 C48        -7.8900   -1.3160   -2.2770 c3        1 MOL     -0.145563
    147 H67        -6.8190    1.3540   -3.3270 hn        1 MOL      0.339671
    148 H68        -8.1630    0.2920   -0.9260 h1        1 MOL     -0.038091
    149 H69        -8.6580   -1.8890   -1.7540 hc        1 MOL      0.048661
    150 H70        -7.9940   -1.5280   -3.3390 hc        1 MOL      0.048661
    151 H71        -7.0180   -1.8700   -1.9070 hc        1 MOL      0.048661
    152 N14       -10.4070    1.1770   -2.0870 n         1 MOL     -0.324898
    153 C49       -10.7410    0.9420   -0.6930 c3        1 MOL     -0.085512
    154 C50        -9.8680    1.8310    0.2330 c         1 MOL      0.458237
    155 O20        -9.3150    1.2770    1.2170 o         1 MOL     -0.530014
    156 C51       -12.2340    1.2630   -0.4250 c3        1 MOL      0.008097
    157 C52       -12.6040    0.5960    0.8930 c3        1 MOL     -0.158426
    158 C53       -14.0760    0.1010    0.9340 c         1 MOL      0.685130
    159 O21       -14.9220    0.9460    1.2850 o         1 MOL     -0.667067
    160 O22       -14.3650   -1.0230    0.5540 o         1 MOL     -0.667067
    161 H72       -11.1800    1.4940   -2.6440 hn        1 MOL      0.264678
    162 H73       -10.5870   -0.1070   -0.4500 h1        1 MOL      0.123378
    163 H74       -12.8110    0.8440   -1.2570 hc        1 MOL      0.032449
    164 H75       -12.3810    2.3410   -0.3390 hc        1 MOL      0.032449
    165 H76       -12.2810    1.2520    1.7160 hc        1 MOL      0.019047
    166 H77       -12.0310   -0.3240    0.9680 hc        1 MOL      0.019047
    167 N15        -9.6820    3.1330   -0.0590 n         1 MOL     -0.168791
    168 C54        -8.7720    4.0430    0.6510 c3        1 MOL     -0.301111
    169 H78        -8.8810    5.0510    0.2510 h1        1 MOL      0.120873
    170 H79        -9.0160    4.0450    1.7130 h1        1 MOL      0.120873
    171 H80        -7.7430    3.7090    0.5140 h1        1 MOL      0.120873
    172 H81       -10.1390    3.5740   -0.8570 hn        1 MOL      0.215660
    173 Ca1         3.0080    0.1840   -0.9930 Ca        1 MOL      1.759409
    174 O23         0.7020    1.2340   -2.2280 oh        1 MOL     -0.840719
    175 H82         0.3310    0.8140   -2.9930 ho        1 MOL      0.414554
    176 H83         0.0270    1.8390   -1.9290 ho        1 MOL      0.414554
    177 O24         1.1810   -1.6310   -2.2230 oh        1 MOL     -0.840719
    178 H84         1.7560   -2.0110   -2.8780 ho        1 MOL      0.414554
    179 H85         0.3250   -1.6040   -2.6400 ho        1 MOL      0.414554
    180 O25         3.6180    1.9990   -2.7990 oh        1 MOL     -0.840719
    181 H86         2.7920    2.4820   -2.8800 ho        1 MOL      0.414554
    182 H87         4.1640    2.3300   -3.5050 ho        1 MOL      0.414554
@<TRIPOS>BOND
     1    1    2 1   
     2    1    4 1   
     3    1    5 1   
     4    1    6 1   
     5    2    3 2   
     6    2    7 1   
     7    7    8 1   
     8    7   15 1   
     9    8    9 1   
    10    8   11 1   
    11    8   16 1   
    12    9   10 2   
    13    9   19 1   
    14   11   12 1   
    15   11   17 1   
    16   11   18 1   
    17   12   13 1   
    18   12   14 1   
    19   19   20 1   
    20   19   28 1   
    21   20   21 1   
    22   20   23 1   
    23   20   29 1   
    24   21   22 2   
    25   21   41 1   
    26   23   24 1   
    27   23   30 1   
    28   23   31 1   
    29   24   25 1   
    30   24   32 1   
    31   24   33 1   
    32   25   26 1   
    33   25   34 1   
    34   25   35 1   
    35   26   27 1   
    36   26   36 1   
    37   26   37 1   
    38   27   38 1   
    39   27   39 1   
    40   27   40 1   
    41   41   42 1   
    42   41   49 1   
    43   42   43 1   
    44   42   45 1   
    45   42   50 1   
    46   43   44 2   
    47   43   53 1   
    48   45   46 1   
    49   45   51 1   
    50   45   52 1   
    51   46   47 1   
    52   46   48 1   
    53   53   54 1   
    54   53   57 1   
    55   54   55 1   
    56   54   58 1   
    57   54   59 1   
    58   55   56 2   
    59   55   60 1   
    60   60   61 1   
    61   60   68 1   
    62   61   62 1   
    63   61   64 1   
    64   61   69 1   
    65   62   63 2   
    66   62   74 1   
    67   64   65 1   
    68   64   70 1   
    69   64   71 1   
    70   65   66 1   
    71   65   67 2   
    72   66   72 1   
    73   66   73 1   
    74   74   75 1   
    75   74   78 1   
    76   75   76 1   
    77   75   79 1   
    78   75   80 1   
    79   76   77 2   
    80   76   81 1   
    81   81   82 1   
    82   81   93 1   
    83   82   83 1   
    84   82   85 1   
    85   82   94 1   
    86   83   84 2   
    87   83  102 1   
    88   85   86 1   
    89   85   95 1   
    90   85   96 1   
    91   86   87 ar  
    92   86   88 ar  
    93   87   89 ar  
    94   87   97 1   
    95   88   90 ar  
    96   88   98 1   
    97   89   91 ar  
    98   89   99 1   
    99   90   91 ar  
   100   90  100 1   
   101   91   92 1   
   102   92  101 1   
   103  102  103 1   
   104  102  110 1   
   105  103  104 1   
   106  103  106 1   
   107  103  111 1   
   108  104  105 2   
   109  104  121 1   
   110  106  107 1   
   111  106  108 1   
   112  106  112 1   
   113  107  109 1   
   114  107  113 1   
   115  107  114 1   
   116  108  115 1   
   117  108  116 1   
   118  108  117 1   
   119  109  118 1   
   120  109  119 1   
   121  109  120 1   
   122  121  122 1   
   123  121  127 1   
   124  122  123 1   
   125  122  125 1   
   126  122  128 1   
   127  123  124 2   
   128  123  132 1   
   129  125  126 1   
   130  125  129 1   
   131  125  130 1   
   132  126  131 1   
   133  132  133 1   
   134  132  137 1   
   135  133  134 1   
   136  133  136 1   
   137  133  138 1   
   138  134  135 2   
   139  134  142 1   
   140  136  139 1   
   141  136  140 1   
   142  136  141 1   
   143  142  143 1   
   144  142  147 1   
   145  143  144 1   
   146  143  146 1   
   147  143  148 1   
   148  144  145 2   
   149  144  152 1   
   150  146  149 1   
   151  146  150 1   
   152  146  151 1   
   153  152  153 1   
   154  152  161 1   
   155  153  154 1   
   156  153  156 1   
   157  153  162 1   
   158  154  155 2   
   159  154  167 1   
   160  156  157 1   
   161  156  163 1   
   162  156  164 1   
   163  157  158 1   
   164  157  165 1   
   165  157  166 1   
   166  158  159 1   
   167  158  160 1   
   168  167  168 1   
   169  167  172 1   
   170  168  169 1   
   171  168  170 1   
   172  168  171 1   
   173  174  175 1   
   174  174  176 1   
   175  177  178 1   
   176  177  179 1   
   177  180  181 1   
   178  180  182 1   
@<TRIPOS>SUBSTRUCTURE
     1 MOL         1 TEMP              0 ****  ****    0 ROOT
