@<TRIPOS>MOLECULE
MOL
  198   191     1     0     0
SMALL
resp


@<TRIPOS>ATOM
      1 C1          5.3200    6.9030   -0.8670 c3        1 MOL     -0.431571
      2 C2          6.8350    6.5190   -0.9470 c         1 MOL      0.674632
      3 O1          7.5860    7.0310   -0.0710 o         1 MOL     -0.561498
      4 H1          4.7150    6.0680   -1.2220 hc        1 MOL      0.112477
      5 H2          5.0560    7.1280    0.1670 hc        1 MOL      0.112477
      6 H3          5.1330    7.7770   -1.4900 hc        1 MOL      0.112477
      7 N1          7.2430    5.6690   -1.8910 n         1 MOL     -0.684939
      8 C3          8.5250    4.9030   -1.9090 c3        1 MOL      0.361260
      9 C4          8.7120    3.9490   -0.8020 c         1 MOL      0.548138
     10 O2          7.8450    3.7800    0.0820 o         1 MOL     -0.554286
     11 C5          9.7350    5.8420   -2.1720 c3        1 MOL     -0.409584
     12 C6         10.9990    5.2060   -2.6370 c         1 MOL      0.783008
     13 O3         12.0860    5.8480   -2.5980 o         1 MOL     -0.716279
     14 O4         11.0230    4.0860   -3.2340 o         1 MOL     -0.716279
     15 H4          6.5770    5.4130   -2.6180 hn        1 MOL      0.341508
     16 H5          8.3710    4.2110   -2.7400 h1        1 MOL      0.010008
     17 H6         10.0610    6.3840   -1.2860 hc        1 MOL      0.101510
     18 H7          9.5720    6.5690   -2.9720 hc        1 MOL      0.101510
     19 N2          9.7130    3.1410   -0.9360 n         1 MOL     -0.412124
     20 C7         10.2050    2.1930    0.0470 c3        1 MOL      0.186053
     21 C8          9.1940    1.1870    0.5520 c         1 MOL      0.405461
     22 O5          9.4750    0.5910    1.6090 o         1 MOL     -0.565823
     23 C9         11.0230    2.9710    1.1280 c3        1 MOL     -0.016686
     24 C10        12.2400    3.7540    0.5850 c3        1 MOL      0.082177
     25 C11        13.5630    3.2920    1.1940 c3        1 MOL     -0.188084
     26 C12        13.8260    4.1320    2.4760 c3        1 MOL      0.115702
     27 N3         15.2430    4.0760    2.9040 n4        1 MOL     -0.394303
     28 H8         10.2020    3.3110   -1.7970 hn        1 MOL      0.162996
     29 H9         10.8870    1.4880   -0.4110 h1        1 MOL      0.057151
     30 H10        11.4140    2.3420    1.9180 hc        1 MOL      0.005685
     31 H11        10.3260    3.7010    1.5480 hc        1 MOL      0.005685
     32 H12        12.0560    4.8010    0.8220 hc        1 MOL      0.011743
     33 H13        12.2430    3.6600   -0.4980 hc        1 MOL      0.011743
     34 H14        14.3170    3.5330    0.4540 hc        1 MOL      0.070088
     35 H15        13.4570    2.2240    1.3900 hc        1 MOL      0.070088
     36 H16        13.1780    3.7900    3.2730 hx        1 MOL      0.071216
     37 H17        13.5420    5.1600    2.2410 hx        1 MOL      0.071216
     38 H18        15.4950    3.1130    3.0350 hn        1 MOL      0.330286
     39 H19        15.8110    4.4350    2.1450 hn        1 MOL      0.330286
     40 H20        15.4750    4.6360    3.7150 hn        1 MOL      0.330286
     41 N4          8.1200    0.9420   -0.1790 n         1 MOL     -0.396605
     42 C13         7.1960   -0.1460    0.0260 c3        1 MOL      0.317257
     43 C14         6.6070   -0.5530   -1.3510 c         1 MOL      0.325135
     44 O6          6.1300    0.3590   -2.0850 o         1 MOL     -0.514850
     45 C15         6.0110    0.2300    1.0870 c3        1 MOL     -0.302581
     46 C16         5.1460   -0.9100    1.5960 c         1 MOL      0.959098
     47 O7          5.0650   -2.0370    1.1080 o         1 MOL     -0.878383
     48 O8          4.5260   -0.7870    2.7130 o         1 MOL     -0.878383
     49 H21         7.9780    1.6040   -0.9280 hn        1 MOL      0.240303
     50 H22         7.6850   -1.0510    0.3890 h1        1 MOL      0.034211
     51 H23         5.2940    0.9420    0.6730 hc        1 MOL      0.092413
     52 H24         6.3580    0.7210    1.9980 hc        1 MOL      0.092413
     53 N5          6.6620   -1.8290   -1.8620 n         1 MOL     -0.347096
     54 C17         7.0480   -3.1140   -1.1930 c3        1 MOL     -0.065306
     55 C18         6.0970   -4.2840   -1.5150 c         1 MOL      0.528971
     56 O9          6.2110   -4.7840   -2.6680 o         1 MOL     -0.548845
     57 H25         6.4020   -1.9360   -2.8380 hn        1 MOL      0.304281
     58 H26         7.0260   -3.0280   -0.1020 h1        1 MOL      0.066492
     59 H27         8.0390   -3.4700   -1.4880 h1        1 MOL      0.066492
     60 N6          5.1090   -4.5550   -0.6280 n         1 MOL     -0.327714
     61 C19         4.2820   -5.7590   -0.3940 c3        1 MOL      0.127408
     62 C20         2.8480   -5.3470    0.0440 c         1 MOL      0.233607
     63 O10         2.6170   -4.2830    0.7080 o         1 MOL     -0.508965
     64 C21         4.8770   -6.6330    0.7360 c3        1 MOL     -0.070724
     65 C22         5.6010   -5.9630    1.8300 c         1 MOL      0.583389
     66 O11         5.1740   -4.8540    2.2510 o         1 MOL     -0.649315
     67 O12         6.5540   -6.6210    2.4320 o         1 MOL     -0.649315
     68 H28         4.9120   -3.8910    0.1040 hn        1 MOL      0.307018
     69 H29         4.2290   -6.3620   -1.3050 h1        1 MOL      0.037033
     70 H30         5.5980   -7.2800    0.2420 hc        1 MOL      0.012344
     71 H31         4.1090   -7.2940    1.1230 hc        1 MOL      0.012344
     72 N7          1.8990   -6.1690   -0.3500 n         1 MOL     -0.262272
     73 C23         0.5290   -5.7830   -0.0830 c3        1 MOL      0.040960
     74 C24        -0.0550   -4.7380   -1.0530 c         1 MOL      0.464960
     75 O13        -1.1140   -4.9430   -1.6610 o         1 MOL     -0.525813
     76 H32         2.0490   -7.0240   -0.8690 hn        1 MOL      0.294538
     77 H33         0.4760   -5.3500    0.9180 h1        1 MOL      0.045341
     78 H34        -0.1680   -6.6150    0.0140 h1        1 MOL      0.045341
     79 N8          0.7110   -3.6380   -1.2130 n         1 MOL     -0.277893
     80 C25         0.3560   -2.4700   -2.0600 c3        1 MOL     -0.031785
     81 C26        -0.2810   -1.3190   -1.3260 c         1 MOL      0.476530
     82 O14        -0.1170   -1.0770   -0.1190 o         1 MOL     -0.496611
     83 C27         1.4850   -2.0640   -3.0220 c3        1 MOL      0.384603
     84 C28         2.7100   -1.6230   -2.1450 c3        1 MOL     -0.092036
     85 O15         1.9150   -3.1210   -3.8430 oh        1 MOL     -0.614618
     86 H35         1.5930   -3.4610   -0.7430 hn        1 MOL      0.170731
     87 H36        -0.4440   -2.7740   -2.7430 h1        1 MOL      0.019687
     88 H37         1.1540   -1.1990   -3.5770 h1        1 MOL     -0.056115
     89 H38         1.2480   -3.2520   -4.5170 ho        1 MOL      0.396410
     90 H39         3.1990   -0.8340   -2.7130 hc        1 MOL      0.030041
     91 H40         2.4310   -1.2930   -1.1470 hc        1 MOL      0.030041
     92 H41         3.5030   -2.3690   -2.0460 hc        1 MOL      0.030041
     93 N9         -0.9530   -0.5090   -2.0750 n         1 MOL     -0.415390
     94 C29        -1.6290    0.7270   -1.5480 c3        1 MOL     -0.167811
     95 C30        -2.9580    0.3620   -0.7620 c         1 MOL      0.512962
     96 O16        -3.1780    0.9500    0.3320 o         1 MOL     -0.516129
     97 C31        -1.8930    1.8290   -2.5870 c3        1 MOL      0.086310
     98 C32        -0.5660    2.0890   -3.3950 c3        1 MOL      0.117516
     99 C33        -2.4020    3.1150   -1.8410 c3        1 MOL     -0.377354
    100 C34        -0.7560    3.1560   -4.4830 c3        1 MOL     -0.321514
    101 H42        -1.1980   -0.7730   -3.0110 hn        1 MOL      0.323043
    102 H43        -0.9890    1.2650   -0.8620 h1        1 MOL      0.151430
    103 H44        -2.5980    1.5220   -3.3630 hc        1 MOL      0.023595
    104 H45        -0.4030    1.1120   -3.8400 hc        1 MOL     -0.000139
    105 H46         0.2950    2.3780   -2.7820 hc        1 MOL     -0.000139
    106 H47        -3.4300    2.9780   -1.4950 hc        1 MOL      0.112898
    107 H48        -1.8220    3.1750   -0.9270 hc        1 MOL      0.112898
    108 H49        -2.2740    4.0030   -2.4780 hc        1 MOL      0.112898
    109 H50        -0.6030    4.1190   -3.9980 hc        1 MOL      0.084113
    110 H51        -0.0460    3.1140   -5.3090 hc        1 MOL      0.084113
    111 H52        -1.7630    3.0500   -4.8910 hc        1 MOL      0.084113
    112 N10        -3.7820   -0.5080   -1.2830 n         1 MOL     -0.191380
    113 C35        -5.0020   -1.0920   -0.7460 c3        1 MOL     -0.177684
    114 C36        -5.9690   -1.3350   -1.9100 c         1 MOL      0.625549
    115 O17        -5.5400   -1.4910   -3.0240 o         1 MOL     -0.510834
    116 C37        -4.8740   -2.3450    0.1150 c3        1 MOL      0.327265
    117 C38        -4.1350   -3.5620   -0.5590 c3        1 MOL     -0.369936
    118 O18        -4.1090   -1.9410    1.2390 oh        1 MOL     -0.541221
    119 H53        -3.5380   -0.7550   -2.2280 hn        1 MOL      0.168142
    120 H54        -5.4490   -0.3190   -0.1250 h1        1 MOL      0.084523
    121 H55        -5.8320   -2.7470    0.4500 h1        1 MOL      0.010877
    122 H56        -4.6000   -2.3450    1.9530 ho        1 MOL      0.364378
    123 H57        -3.9670   -4.4470    0.0590 hc        1 MOL      0.102213
    124 H58        -4.6300   -3.8100   -1.4980 hc        1 MOL      0.102213
    125 H59        -3.1310   -3.2530   -0.8250 hc        1 MOL      0.102213
    126 N11        -7.2670   -1.3330   -1.5900 n         1 MOL     -0.526158
    127 C39        -8.3430   -1.3720   -2.5820 c3        1 MOL      0.065639
    128 C40        -9.4620   -0.3620   -2.2690 c         1 MOL      0.577910
    129 O19        -9.7500    0.4560   -3.1610 o         1 MOL     -0.565964
    130 C41        -8.8620   -2.8240   -2.5880 c3        1 MOL      0.113281
    131 C42       -10.0220   -3.1830   -3.5400 c3        1 MOL     -0.286175
    132 O20        -9.3040   -3.1900   -1.2350 oh        1 MOL     -0.627367
    133 H60        -7.6380   -1.2530   -0.6480 hn        1 MOL      0.285328
    134 H61        -7.9560   -1.0660   -3.5460 h1        1 MOL      0.093335
    135 H62        -8.0600   -3.4710   -2.9020 h1        1 MOL      0.089545
    136 H63        -9.4660   -4.1290   -1.2680 ho        1 MOL      0.425025
    137 H64        -9.9800   -2.7320   -4.5330 hc        1 MOL      0.086799
    138 H65       -10.1070   -4.2600   -3.7100 hc        1 MOL      0.086799
    139 H66       -10.9630   -2.8350   -3.1100 hc        1 MOL      0.086799
    140 N12       -10.1470   -0.4320   -1.1550 n         1 MOL     -0.428020
    141 C43       -11.1310    0.5970   -0.6610 c3        1 MOL      0.019236
    142 C44       -10.8350    0.9320    0.8370 c         1 MOL      0.438180
    143 O21       -10.5970    0.0180    1.6040 o         1 MOL     -0.495059
    144 C45       -12.5950    0.0370   -0.7890 c3        1 MOL     -0.176342
    145 C46       -13.5910    1.1140   -0.5120 c3        1 MOL      0.233164
    146 C47       -15.0660    0.6100   -0.5680 c3        1 MOL     -0.086008
    147 C48       -16.0290    1.7680   -0.5540 c3        1 MOL      0.163248
    148 N13       -17.4030    1.3960   -0.6970 n4        1 MOL     -0.254037
    149 H67        -9.9820   -1.2580   -0.6000 hn        1 MOL      0.299271
    150 H68       -11.0190    1.5030   -1.2540 h1        1 MOL      0.095676
    151 H69       -12.7590   -0.7950   -0.1060 hc        1 MOL      0.070302
    152 H70       -12.8170   -0.3210   -1.7920 hc        1 MOL      0.070302
    153 H71       -13.5220    1.9080   -1.2530 hc        1 MOL     -0.039140
    154 H72       -13.5140    1.6160    0.4470 hc        1 MOL     -0.039140
    155 H73       -15.1800   -0.0140    0.3200 hc        1 MOL      0.020224
    156 H74       -15.2440    0.0710   -1.5050 hc        1 MOL      0.020224
    157 H75       -15.8120    2.4130   -1.4070 hx        1 MOL      0.038991
    158 H76       -15.9550    2.3890    0.3400 hx        1 MOL      0.038991
    159 H77       -17.6520    1.3880   -1.6860 hn        1 MOL      0.242033
    160 H78       -17.5940    0.4690   -0.3450 hn        1 MOL      0.242033
    161 H79       -18.0210    1.9740   -0.1570 hn        1 MOL      0.242033
    162 N14       -10.8210    2.2010    1.1880 n         1 MOL     -0.304049
    163 C49       -10.5800    2.8420    2.4510 c3        1 MOL      0.208911
    164 C50        -9.1500    2.6260    3.0450 c         1 MOL      0.299549
    165 O22        -9.2160    2.1270    4.1750 o         1 MOL     -0.506753
    166 C51       -10.9480    4.2880    2.3440 c3        1 MOL      0.089163
    167 C52       -10.8140    5.0590    3.6680 c3        1 MOL     -0.158804
    168 C53       -11.3480    6.4920    3.6490 c         1 MOL      0.659178
    169 O23       -11.4050    7.1330    2.5380 o         1 MOL     -0.641397
    170 O24       -11.7860    7.0200    4.7130 o         1 MOL     -0.641397
    171 H80       -11.1270    2.8430    0.4700 hn        1 MOL      0.176967
    172 H81       -11.3390    2.4570    3.1290 h1        1 MOL      0.035891
    173 H82       -11.9910    4.4100    2.0570 hc        1 MOL     -0.037349
    174 H83       -10.3910    4.7870    1.5570 hc        1 MOL     -0.037349
    175 H84        -9.7460    5.0350    3.8840 hc        1 MOL      0.039673
    176 H85       -11.3080    4.5210    4.4800 hc        1 MOL      0.039673
    177 N15        -7.9450    2.7390    2.3850 n         1 MOL     -0.251071
    178 C54        -7.7310    3.4300    1.1260 c3        1 MOL     -0.156628
    179 H86        -8.5480    3.1990    0.4420 h1        1 MOL      0.083886
    180 H87        -7.6990    4.5060    1.3020 h1        1 MOL      0.083886
    181 H88        -6.7880    3.1050    0.6880 h1        1 MOL      0.083886
    182 H89        -7.1500    2.3650    2.8870 hn        1 MOL      0.277315
    183 Ca1         3.3350   -3.1690    2.8940 Ca        1 MOL      1.723059
    184 O25         1.7950   -1.3090    1.7050 oh        1 MOL     -0.781320
    185 H90         1.7580   -0.3550    1.7860 ho        1 MOL      0.391605
    186 H91         1.3340   -1.5040    0.8950 ho        1 MOL      0.391605
    187 O26         2.1630   -2.3560    5.2070 oh        1 MOL     -0.781320
    188 H92         2.6120   -2.5850    6.0210 ho        1 MOL      0.391605
    189 H93         1.5010   -1.7200    5.4730 ho        1 MOL      0.391605
    190 O27         3.0690   -5.3790    4.4110 oh        1 MOL     -0.781320
    191 H94         3.9860   -5.5740    4.5860 ho        1 MOL      0.391605
    192 H95         2.5940   -5.8430    5.1000 ho        1 MOL      0.391605
    193 O28         5.1310   -3.2380    4.9910 oh        1 MOL     -0.781320
    194 H96         4.8620   -3.4390    5.8930 ho        1 MOL      0.391605
    195 H97         5.3690   -2.3070    5.0130 ho        1 MOL      0.391605
    196 O29         0.8810   -3.9030    3.1870 oh        1 MOL     -0.781320
    197 H98         0.4940   -4.5180    3.8190 ho        1 MOL      0.391605
    198 H99         0.1540   -3.6290    2.6330 ho        1 MOL      0.391605
@<TRIPOS>BOND
     1    1    2 1   
     2    1    4 1   
     3    1    5 1   
     4    1    6 1   
     5    2    3 2   
     6    2    7 1   
     7    7    8 1   
     8    7   15 1   
     9    8    9 1   
    10    8   11 1   
    11    8   16 1   
    12    9   10 2   
    13    9   19 1   
    14   11   12 1   
    15   11   17 1   
    16   11   18 1   
    17   12   13 1   
    18   12   14 1   
    19   19   20 1   
    20   19   28 1   
    21   20   21 1   
    22   20   23 1   
    23   20   29 1   
    24   21   22 2   
    25   21   41 1   
    26   23   24 1   
    27   23   30 1   
    28   23   31 1   
    29   24   25 1   
    30   24   32 1   
    31   24   33 1   
    32   25   26 1   
    33   25   34 1   
    34   25   35 1   
    35   26   27 1   
    36   26   36 1   
    37   26   37 1   
    38   27   38 1   
    39   27   39 1   
    40   27   40 1   
    41   41   42 1   
    42   41   49 1   
    43   42   43 1   
    44   42   45 1   
    45   42   50 1   
    46   43   44 2   
    47   43   53 1   
    48   45   46 1   
    49   45   51 1   
    50   45   52 1   
    51   46   47 1   
    52   46   48 1   
    53   53   54 1   
    54   53   57 1   
    55   54   55 1   
    56   54   58 1   
    57   54   59 1   
    58   55   56 2   
    59   55   60 1   
    60   60   61 1   
    61   60   68 1   
    62   61   62 1   
    63   61   64 1   
    64   61   69 1   
    65   62   63 2   
    66   62   72 1   
    67   64   65 1   
    68   64   70 1   
    69   64   71 1   
    70   65   66 1   
    71   65   67 1   
    72   72   73 1   
    73   72   76 1   
    74   73   74 1   
    75   73   77 1   
    76   73   78 1   
    77   74   75 2   
    78   74   79 1   
    79   79   80 1   
    80   79   86 1   
    81   80   81 1   
    82   80   83 1   
    83   80   87 1   
    84   81   82 2   
    85   81   93 1   
    86   83   84 1   
    87   83   85 1   
    88   83   88 1   
    89   84   90 1   
    90   84   91 1   
    91   84   92 1   
    92   85   89 1   
    93   93   94 1   
    94   93  101 1   
    95   94   95 1   
    96   94   97 1   
    97   94  102 1   
    98   95   96 2   
    99   95  112 1   
   100   97   98 1   
   101   97   99 1   
   102   97  103 1   
   103   98  100 1   
   104   98  104 1   
   105   98  105 1   
   106   99  106 1   
   107   99  107 1   
   108   99  108 1   
   109  100  109 1   
   110  100  110 1   
   111  100  111 1   
   112  112  113 1   
   113  112  119 1   
   114  113  114 1   
   115  113  116 1   
   116  113  120 1   
   117  114  115 2   
   118  114  126 1   
   119  116  117 1   
   120  116  118 1   
   121  116  121 1   
   122  117  123 1   
   123  117  124 1   
   124  117  125 1   
   125  118  122 1   
   126  126  127 1   
   127  126  133 1   
   128  127  128 1   
   129  127  130 1   
   130  127  134 1   
   131  128  129 2   
   132  128  140 1   
   133  130  131 1   
   134  130  132 1   
   135  130  135 1   
   136  131  137 1   
   137  131  138 1   
   138  131  139 1   
   139  132  136 1   
   140  140  141 1   
   141  140  149 1   
   142  141  142 1   
   143  141  144 1   
   144  141  150 1   
   145  142  143 2   
   146  142  162 1   
   147  144  145 1   
   148  144  151 1   
   149  144  152 1   
   150  145  146 1   
   151  145  153 1   
   152  145  154 1   
   153  146  147 1   
   154  146  155 1   
   155  146  156 1   
   156  147  148 1   
   157  147  157 1   
   158  147  158 1   
   159  148  159 1   
   160  148  160 1   
   161  148  161 1   
   162  162  163 1   
   163  162  171 1   
   164  163  164 1   
   165  163  166 1   
   166  163  172 1   
   167  164  165 2   
   168  164  177 1   
   169  166  167 1   
   170  166  173 1   
   171  166  174 1   
   172  167  168 1   
   173  167  175 1   
   174  167  176 1   
   175  168  169 1   
   176  168  170 1   
   177  177  178 1   
   178  177  182 1   
   179  178  179 1   
   180  178  180 1   
   181  178  181 1   
   182  184  185 1   
   183  184  186 1   
   184  187  188 1   
   185  187  189 1   
   186  190  191 1   
   187  190  192 1   
   188  193  194 1   
   189  193  195 1   
   190  196  197 1   
   191  196  198 1   
@<TRIPOS>SUBSTRUCTURE
     1 MOL         1 TEMP              0 ****  ****    0 ROOT
