@<TRIPOS>MOLECULE
MOL
  189   185     1     0     0
SMALL
resp


@<TRIPOS>ATOM
      1 C1          4.2920    4.1060   -3.7410 c3        1 MOL     -0.367780
      2 C2          5.1410    3.6410   -2.5570 c         1 MOL      0.778021
      3 O1          4.6500    3.5780   -1.4410 o         1 MOL     -0.621569
      4 H1          4.4580    5.1710   -3.9100 hc        1 MOL      0.093942
      5 H2          4.5770    3.5490   -4.6340 hc        1 MOL      0.093942
      6 H3          3.2380    3.9330   -3.5240 hc        1 MOL      0.093942
      7 N1          6.4080    3.1640   -2.7860 n         1 MOL     -0.602560
      8 C3          7.0590    2.0960   -2.0050 c3        1 MOL      0.216046
      9 C4          6.2730    0.8340   -1.6710 c         1 MOL      0.420589
     10 O2          5.8480    0.6610   -0.5140 o         1 MOL     -0.554329
     11 C5          7.8590    2.7200   -0.7890 c3        1 MOL     -0.215283
     12 C6          7.2790    3.9670   -0.0600 c         1 MOL      0.761333
     13 O3          6.5130    3.6920    0.8350 o         1 MOL     -0.727568
     14 O4          7.6640    5.0980   -0.4160 o         1 MOL     -0.727568
     15 H4          6.8350    3.2990   -3.6900 hn        1 MOL      0.307776
     16 H5          7.8780    1.7520   -2.6280 h1        1 MOL      0.027173
     17 H6          8.8370    2.8850   -1.2200 hc        1 MOL      0.022970
     18 H7          7.9170    1.9910    0.0240 hc        1 MOL      0.022970
     19 N2          5.9120    0.1300   -2.7430 n         1 MOL     -0.463280
     20 C7          5.1530   -1.1100   -2.9280 c3        1 MOL      0.146475
     21 C8          5.7930   -2.3110   -2.0850 c         1 MOL      0.238772
     22 O5          6.0480   -3.4230   -2.6490 o         1 MOL     -0.521436
     23 C9          3.6340   -0.7840   -2.6760 c3        1 MOL      0.317305
     24 C10         2.7550   -2.0230   -2.7620 c3        1 MOL     -0.401269
     25 C11         3.0410    0.3170   -3.5250 c3        1 MOL     -0.488015
     26 C12         2.6640   -2.7460   -4.1270 c3        1 MOL     -0.311399
     27 H8          6.1990    0.4600   -3.6550 hn        1 MOL      0.260794
     28 H9          5.2410   -1.3550   -3.9830 h1        1 MOL      0.041844
     29 H10         3.6650   -0.3960   -1.6630 hc        1 MOL     -0.082195
     30 H11         1.7750   -1.6590   -2.4410 hc        1 MOL      0.222149
     31 H12         3.0570   -2.7810   -2.0330 hc        1 MOL      0.222149
     32 H13         3.3860    0.0860   -4.5390 hc        1 MOL      0.104150
     33 H14         1.9560    0.3420   -3.4170 hc        1 MOL      0.104150
     34 H15         3.3700    1.3180   -3.2240 hc        1 MOL      0.104150
     35 H16         1.9650   -3.5790   -4.1600 hc        1 MOL      0.084538
     36 H17         2.3240   -2.0250   -4.8660 hc        1 MOL      0.084538
     37 H18         3.6110   -3.2370   -4.3520 hc        1 MOL      0.084538
     38 N3          6.0700   -2.0560   -0.8070 n         1 MOL     -0.014435
     39 C13         6.8140   -2.9810    0.0830 c3        1 MOL     -0.036632
     40 C14         6.0940   -4.3220    0.3980 c         1 MOL      0.625545
     41 O6          6.7140   -5.3710    0.2130 o         1 MOL     -0.575303
     42 C15         7.3260   -2.2840    1.3240 c3        1 MOL     -0.074559
     43 C16         8.2770   -3.0950    2.1030 c         1 MOL      0.582429
     44 O7          9.4130   -3.2290    1.6220 o         1 MOL     -0.662342
     45 O8          7.8930   -3.5530    3.2380 o         1 MOL     -0.662342
     46 H19         5.8320   -1.1160   -0.5130 hn        1 MOL      0.170139
     47 H20         7.7230   -3.2810   -0.4330 h1        1 MOL      0.025792
     48 H21         6.4790   -1.9340    1.9040 hc        1 MOL      0.036270
     49 H22         7.9050   -1.4170    1.0080 hc        1 MOL      0.036270
     50 N4          4.7920   -4.4380    0.7720 n         1 MOL     -0.504991
     51 C17         3.8190   -3.3990    1.0580 c3        1 MOL      0.392222
     52 C18         2.6850   -3.8450    1.9960 c         1 MOL      0.758493
     53 O9          2.4090   -5.0670    2.0940 o         1 MOL     -0.646663
     54 H23         4.5850   -5.4170    0.8940 hn        1 MOL      0.261165
     55 H24         3.3320   -3.2740    0.0920 h1        1 MOL     -0.144938
     56 H25         4.2580   -2.4710    1.4190 h1        1 MOL     -0.144938
     57 N5          2.1500   -3.0110    2.8360 n         1 MOL     -0.482593
     58 C19         2.4130   -1.5670    3.0580 c3        1 MOL     -0.141344
     59 C20         2.5560   -0.6970    1.7810 c         1 MOL      0.930613
     60 O10         3.5680   -0.0790    1.5590 o         1 MOL     -0.749142
     61 C21         3.6630   -1.3540    3.9580 c3        1 MOL     -0.276384
     62 C22         3.7680   -2.3010    5.1180 c         1 MOL      0.721774
     63 O11         2.7850   -2.3670    5.9080 o         1 MOL     -0.710402
     64 O12         4.8200   -2.9250    5.2800 o         1 MOL     -0.710402
     65 H26         1.5940   -3.4380    3.5710 hn        1 MOL      0.272676
     66 H27         1.5860   -1.1050    3.5960 h1        1 MOL      0.087853
     67 H28         3.6850   -0.3630    4.4160 hc        1 MOL      0.082782
     68 H29         4.5550   -1.3610    3.3380 hc        1 MOL      0.082782
     69 N6          1.4920   -0.6550    1.0100 n         1 MOL     -0.688240
     70 C23         0.2000   -1.3730    1.1190 c3        1 MOL      0.032620
     71 C24         0.0740   -2.5690    0.1980 c         1 MOL      0.370341
     72 O13         0.9940   -2.8680   -0.5170 o         1 MOL     -0.427774
     73 H30         1.6440    0.0290    0.2800 hn        1 MOL      0.405228
     74 H31        -0.5770   -0.6340    0.8780 h1        1 MOL      0.077136
     75 H32         0.0530   -1.5890    2.1740 h1        1 MOL      0.077136
     76 N7         -1.0930   -3.2960    0.2740 n         1 MOL     -0.427383
     77 C25        -1.4950   -4.4280   -0.5240 c3        1 MOL     -0.017170
     78 C26        -2.3000   -4.1190   -1.7890 c         1 MOL      0.445816
     79 O14        -2.4360   -5.0530   -2.5880 o         1 MOL     -0.520754
     80 C27        -2.0710   -5.5340    0.4580 c3        1 MOL      0.185850
     81 C28        -3.2080   -5.0960    1.3950 c3        1 MOL     -0.126945
     82 C29        -4.4100   -4.3690    0.7810 c         1 MOL      0.596548
     83 N8         -5.5550   -5.0640    0.7740 n         1 MOL     -0.747133
     84 O15        -4.3480   -3.2470    0.3840 o         1 MOL     -0.532736
     85 H33        -1.7620   -2.9040    0.9150 hn        1 MOL      0.252952
     86 H34        -0.5880   -4.9010   -0.9110 h1        1 MOL      0.125132
     87 H35        -1.3090   -6.0460    1.0430 hc        1 MOL     -0.028738
     88 H36        -2.4970   -6.2660   -0.2330 hc        1 MOL     -0.028738
     89 H37        -2.7660   -4.4660    2.1540 hc        1 MOL      0.038926
     90 H38        -3.6040   -6.0230    1.8210 hc        1 MOL      0.038926
     91 H39        -5.6460   -5.9800    1.1700 hn        1 MOL      0.354940
     92 H40        -6.1870   -4.8010    0.0240 hn        1 MOL      0.354940
     93 N9         -2.7310   -2.8510   -2.0430 n         1 MOL     -0.049045
     94 C30        -3.1810   -2.4150   -3.3050 c3        1 MOL     -0.489011
     95 C31        -4.5480   -1.6540   -3.2840 c         1 MOL      0.742498
     96 O16        -5.0430   -1.2610   -4.3130 o         1 MOL     -0.559588
     97 C32        -2.0990   -1.7080   -4.0850 c3        1 MOL      0.390168
     98 C33        -0.8800   -2.5220   -4.5350 c3        1 MOL     -0.254614
     99 C34        -1.4780   -0.6070   -3.1980 c3        1 MOL     -0.254614
    100 H41        -2.6310   -2.1480   -1.3310 hn        1 MOL      0.153262
    101 H42        -3.4430   -3.2490   -3.9520 h1        1 MOL      0.142461
    102 H43        -2.5660   -1.2090   -4.9320 hc        1 MOL     -0.039532
    103 H44        -0.3620   -1.8760   -5.2330 hc        1 MOL      0.055946
    104 H45        -0.2760   -2.8850   -3.7050 hc        1 MOL      0.055946
    105 H46        -1.2250   -3.3520   -5.1490 hc        1 MOL      0.055946
    106 H47        -2.2840    0.0790   -2.9290 hc        1 MOL      0.055946
    107 H48        -1.0950   -1.1720   -2.3570 hc        1 MOL      0.055946
    108 H49        -0.7020   -0.0330   -3.7110 hc        1 MOL      0.055946
    109 N10        -5.0630   -1.5040   -2.0460 n         1 MOL     -0.495264
    110 C35        -6.4850   -1.1120   -1.8980 c3        1 MOL      0.001675
    111 C36        -6.6580    0.2720   -1.2410 c         1 MOL      0.713990
    112 O17        -7.6340    0.9800   -1.6110 o         1 MOL     -0.580637
    113 C37        -7.2210   -2.3010   -1.1760 c3        1 MOL     -0.390293
    114 C38        -7.5150   -3.5430   -2.0350 c         1 MOL      0.720253
    115 N11        -7.8150   -3.4190   -3.2860 n         1 MOL     -0.772895
    116 O18        -7.4950   -4.6710   -1.5230 o         1 MOL     -0.592200
    117 H50        -4.6840   -2.0390   -1.2740 hn        1 MOL      0.247350
    118 H51        -6.8130   -0.9770   -2.9280 h1        1 MOL      0.046198
    119 H52        -8.1820   -1.9340   -0.8190 hc        1 MOL      0.166715
    120 H53        -6.5870   -2.6580   -0.3740 hc        1 MOL      0.166715
    121 H54        -7.9200   -2.5220   -3.7330 hn        1 MOL      0.370125
    122 H55        -7.9440   -4.1870   -3.9300 hn        1 MOL      0.370125
    123 N12        -5.7670    0.6410   -0.2600 n         1 MOL     -0.656942
    124 C39        -5.9610    1.8010    0.6660 c3        1 MOL      0.181051
    125 C40        -4.6500    2.6410    0.8230 c         1 MOL      0.493211
    126 O19        -3.5620    2.0550    0.7570 o         1 MOL     -0.469287
    127 C41        -6.3750    1.3300    2.1040 c3        1 MOL     -0.022981
    128 C42        -7.4710    0.4330    2.2000 ca        1 MOL      0.032656
    129 C43        -8.7860    0.9260    2.5560 ca        1 MOL     -0.151915
    130 C44        -7.3400   -0.9620    2.0230 ca        1 MOL     -0.151915
    131 C45        -9.8430   -0.0220    2.7380 ca        1 MOL     -0.278135
    132 C46        -8.3760   -1.8790    2.0540 ca        1 MOL     -0.278135
    133 C47        -9.6680   -1.4450    2.5050 ca        1 MOL      0.328594
    134 O20       -10.6730   -2.3810    2.6800 oh        1 MOL     -0.495304
    135 H56        -5.0830   -0.0750   -0.0720 hn        1 MOL      0.312203
    136 H57        -6.8190    2.3700    0.3120 h1        1 MOL      0.028816
    137 H58        -6.6060    2.1380    2.7930 hc        1 MOL      0.059663
    138 H59        -5.4970    0.8080    2.4890 hc        1 MOL      0.059663
    139 H60        -8.8910    2.0010    2.6080 ha        1 MOL      0.123373
    140 H61        -6.3860   -1.2710    1.6200 ha        1 MOL      0.123373
    141 H62       -10.7900    0.3780    3.0610 ha        1 MOL      0.120686
    142 H63        -8.2090   -2.8850    1.7120 ha        1 MOL      0.120686
    143 H64       -11.3580   -1.9920    3.2270 ho        1 MOL      0.363163
    144 N13        -4.9080    3.9280    1.0780 n         1 MOL     -0.541571
    145 C48        -3.9760    5.0790    1.2450 c3        1 MOL      0.071979
    146 C49        -2.9370    5.4630    0.0900 c         1 MOL      0.532359
    147 O21        -2.4780    6.5670   -0.0980 o         1 MOL     -0.537813
    148 C50        -3.1820    4.9690    2.5330 c3        1 MOL      0.143889
    149 C51        -4.1350    5.0890    3.7720 c3        1 MOL     -0.317025
    150 C52        -3.2540    4.9310    5.0390 c         1 MOL      0.680449
    151 O22        -2.3930    5.7660    5.3730 o         1 MOL     -0.715353
    152 O23        -3.3000    3.8400    5.6420 o         1 MOL     -0.715353
    153 H65        -5.8880    4.1550    0.9990 hn        1 MOL      0.317199
    154 H66        -4.5610    5.9840    1.3880 h1        1 MOL      0.031044
    155 H67        -2.3960    5.7230    2.6050 hc        1 MOL      0.028928
    156 H68        -2.7750    3.9630    2.4950 hc        1 MOL      0.028928
    157 H69        -4.8290    4.2620    3.6440 hc        1 MOL      0.033354
    158 H70        -4.5650    6.0840    3.8920 hc        1 MOL      0.033354
    159 N14        -2.5310    4.3870   -0.6610 n         1 MOL     -0.648768
    160 C53        -1.3700    4.4350   -1.5690 c3        1 MOL      0.056040
    161 C54        -1.6120    5.1080   -2.9630 c         1 MOL      0.312843
    162 O24        -0.8450    4.9180   -3.8890 o         1 MOL     -0.497365
    163 C55        -0.8590    2.9760   -1.7990 c3        1 MOL      0.044138
    164 C56        -0.3600    2.1400   -0.6470 c3        1 MOL     -0.042153
    165 C57         1.0940    2.4920   -0.4040 c         1 MOL      0.912002
    166 O25         1.3890    3.6530   -0.1090 o         1 MOL     -0.820852
    167 O26         2.0510    1.6480   -0.3550 o         1 MOL     -0.820852
    168 H71        -2.8270    3.4810   -0.3250 hn        1 MOL      0.330968
    169 H72        -0.5740    4.9730   -1.0400 h1        1 MOL      0.167163
    170 H73         0.0160    3.0520   -2.4410 hc        1 MOL      0.032964
    171 H74        -1.6220    2.4070   -2.3210 hc        1 MOL      0.032964
    172 H75        -0.4210    1.0730   -0.8480 hc        1 MOL     -0.033832
    173 H76        -0.8900    2.5140    0.2160 hc        1 MOL     -0.033832
    174 N15        -2.7090    5.8770   -3.1230 n         1 MOL     -0.154639
    175 C58        -3.2130    6.4530   -4.3780 c3        1 MOL     -0.091994
    176 H77        -2.9910    7.5200   -4.4020 h1        1 MOL      0.058337
    177 H78        -2.7300    5.9620   -5.2240 h1        1 MOL      0.058337
    178 H79        -4.2910    6.3050   -4.4390 h1        1 MOL      0.058337
    179 H80        -3.2290    6.0160   -2.2710 hn        1 MOL      0.203650
    180 Ca1         4.1940    2.3640    0.8430 Ca        1 MOL      1.806602
    181 O27         3.2820    4.8120    1.2350 oh        1 MOL     -0.870659
    182 H81         2.4520    4.5600    0.8280 ho        1 MOL      0.427537
    183 H82         3.3400    5.7650    1.0940 ho        1 MOL      0.427537
    184 O28         4.9830    2.6110    3.5550 oh        1 MOL     -0.870659
    185 O29         1.9690    2.2840    2.8220 oh        1 MOL     -0.870659
    186 H83         4.3710    2.8800    4.2310 ho        1 MOL      0.427537
    187 H84         1.4370    3.0000    2.4610 ho        1 MOL      0.427537
    188 H85         5.6030    2.0360    4.0160 ho        1 MOL      0.427537
    189 H86         1.5600    2.0780    3.6540 ho        1 MOL      0.427537
@<TRIPOS>BOND
     1    1    2 1   
     2    1    4 1   
     3    1    5 1   
     4    1    6 1   
     5    2    3 2   
     6    2    7 1   
     7    7    8 1   
     8    7   15 1   
     9    8    9 1   
    10    8   11 1   
    11    8   16 1   
    12    9   10 2   
    13    9   19 1   
    14   11   12 1   
    15   11   17 1   
    16   11   18 1   
    17   12   13 1   
    18   12   14 1   
    19   19   20 1   
    20   19   27 1   
    21   20   21 1   
    22   20   23 1   
    23   20   28 1   
    24   21   22 2   
    25   21   38 1   
    26   23   24 1   
    27   23   25 1   
    28   23   29 1   
    29   24   26 1   
    30   24   30 1   
    31   24   31 1   
    32   25   32 1   
    33   25   33 1   
    34   25   34 1   
    35   26   35 1   
    36   26   36 1   
    37   26   37 1   
    38   38   39 1   
    39   38   46 1   
    40   39   40 1   
    41   39   42 1   
    42   39   47 1   
    43   40   41 2   
    44   40   50 1   
    45   42   43 1   
    46   42   48 1   
    47   42   49 1   
    48   43   44 1   
    49   43   45 1   
    50   50   51 1   
    51   50   54 1   
    52   51   52 1   
    53   51   55 1   
    54   51   56 1   
    55   52   53 2   
    56   52   57 1   
    57   57   58 1   
    58   57   65 1   
    59   58   59 1   
    60   58   61 1   
    61   58   66 1   
    62   59   60 2   
    63   59   69 1   
    64   61   62 1   
    65   61   67 1   
    66   61   68 1   
    67   62   63 1   
    68   62   64 1   
    69   69   70 1   
    70   69   73 1   
    71   70   71 1   
    72   70   74 1   
    73   70   75 1   
    74   71   72 2   
    75   71   76 1   
    76   76   77 1   
    77   76   85 1   
    78   77   78 1   
    79   77   80 1   
    80   77   86 1   
    81   78   79 2   
    82   78   93 1   
    83   80   81 1   
    84   80   87 1   
    85   80   88 1   
    86   81   82 1   
    87   81   89 1   
    88   81   90 1   
    89   82   83 1   
    90   82   84 2   
    91   83   91 1   
    92   83   92 1   
    93   93   94 1   
    94   93  100 1   
    95   94   95 1   
    96   94   97 1   
    97   94  101 1   
    98   95   96 2   
    99   95  109 1   
   100   97   98 1   
   101   97   99 1   
   102   97  102 1   
   103   98  103 1   
   104   98  104 1   
   105   98  105 1   
   106   99  106 1   
   107   99  107 1   
   108   99  108 1   
   109  109  110 1   
   110  109  117 1   
   111  110  111 1   
   112  110  113 1   
   113  110  118 1   
   114  111  112 2   
   115  111  123 1   
   116  113  114 1   
   117  113  119 1   
   118  113  120 1   
   119  114  115 1   
   120  114  116 2   
   121  115  121 1   
   122  115  122 1   
   123  123  124 1   
   124  123  135 1   
   125  124  125 1   
   126  124  127 1   
   127  124  136 1   
   128  125  126 2   
   129  125  144 1   
   130  127  128 1   
   131  127  137 1   
   132  127  138 1   
   133  128  129 ar  
   134  128  130 ar  
   135  129  131 ar  
   136  129  139 1   
   137  130  132 ar  
   138  130  140 1   
   139  131  133 ar  
   140  131  141 1   
   141  132  133 ar  
   142  132  142 1   
   143  133  134 1   
   144  134  143 1   
   145  144  145 1   
   146  144  153 1   
   147  145  146 1   
   148  145  148 1   
   149  145  154 1   
   150  146  147 2   
   151  146  159 1   
   152  148  149 1   
   153  148  155 1   
   154  148  156 1   
   155  149  150 1   
   156  149  157 1   
   157  149  158 1   
   158  150  151 1   
   159  150  152 1   
   160  159  160 1   
   161  159  168 1   
   162  160  161 1   
   163  160  163 1   
   164  160  169 1   
   165  161  162 2   
   166  161  174 1   
   167  163  164 1   
   168  163  170 1   
   169  163  171 1   
   170  164  165 1   
   171  164  172 1   
   172  164  173 1   
   173  165  166 1   
   174  165  167 1   
   175  174  175 1   
   176  174  179 1   
   177  175  176 1   
   178  175  177 1   
   179  175  178 1   
   180  181  182 1   
   181  181  183 1   
   182  184  186 1   
   183  184  188 1   
   184  185  187 1   
   185  185  189 1   
@<TRIPOS>SUBSTRUCTURE
     1 MOL         1 TEMP              0 ****  ****    0 ROOT
