@<TRIPOS>MOLECULE
MOL
  192   187     1     0     0
SMALL
resp


@<TRIPOS>ATOM
      1 C1        -10.3500    5.9520    3.2970 c3        1 MOL     -0.312657
      2 C2        -10.4430    4.6230    2.5980 c         1 MOL      0.632820
      3 O1        -11.0440    3.6630    3.0670 o         1 MOL     -0.589601
      4 H1        -10.5750    6.7510    2.5900 hc        1 MOL      0.082986
      5 H2        -11.0660    5.9820    4.1190 hc        1 MOL      0.082986
      6 H3         -9.3420    6.0880    3.6890 hc        1 MOL      0.082986
      7 N1         -9.8890    4.5360    1.3680 n         1 MOL     -0.087783
      8 C3         -9.9010    3.3200    0.5280 c3        1 MOL     -0.600766
      9 C4         -8.6260    2.5400    0.6790 c         1 MOL      0.898970
     10 O2         -7.5580    3.1260    0.9920 o         1 MOL     -0.684316
     11 C5        -10.2680    3.6950   -0.9070 c3        1 MOL     -0.121958
     12 C6         -9.4410    4.7340   -1.7080 c         1 MOL      0.797066
     13 O3         -8.5800    5.3740   -1.0360 o         1 MOL     -0.687903
     14 O4         -9.7900    5.0420   -2.8060 o         1 MOL     -0.687903
     15 H4         -9.2170    5.2190    1.0680 hn        1 MOL      0.031508
     16 H5        -10.6940    2.6520    0.8730 h1        1 MOL      0.216302
     17 H6        -11.3000    4.0330   -0.8360 hc        1 MOL      0.078668
     18 H7        -10.3000    2.7850   -1.5120 hc        1 MOL      0.078668
     19 N2         -8.7570    1.2300    0.4530 n         1 MOL     -0.638370
     20 C7         -7.7670    0.1340    0.7350 c3        1 MOL      0.160254
     21 C8         -6.9720   -0.2480   -0.4980 c         1 MOL      0.771873
     22 O5         -7.3760   -1.1620   -1.1260 o         1 MOL     -0.541135
     23 C9         -8.4530   -1.0120    1.5090 c3        1 MOL     -0.037053
     24 C10        -7.5910   -1.7310    2.5120 c3        1 MOL      0.070753
     25 C11        -8.1580   -3.0070    3.2120 c3        1 MOL     -0.131058
     26 C12        -7.3170   -3.3370    4.4530 c3        1 MOL      0.116368
     27 N3         -7.5770   -4.6930    5.0700 n4        1 MOL     -0.308684
     28 H8         -9.5070    0.9850   -0.1700 hn        1 MOL      0.325484
     29 H9         -7.1100    0.5520    1.4920 h1        1 MOL      0.013273
     30 H10        -8.7470   -1.8350    0.8510 hc        1 MOL      0.021140
     31 H11        -9.2570   -0.5910    2.0950 hc        1 MOL      0.021140
     32 H12        -7.4560   -0.9810    3.2880 hc        1 MOL      0.003929
     33 H13        -6.7100   -1.9810    1.9280 hc        1 MOL      0.003929
     34 H14        -7.9870   -3.8000    2.4900 hc        1 MOL      0.064956
     35 H15        -9.2340   -2.8890    3.3430 hc        1 MOL      0.064956
     36 H16        -7.3730   -2.5400    5.1910 hx        1 MOL      0.042019
     37 H17        -6.2650   -3.2870    4.1590 hx        1 MOL      0.042019
     38 H18        -7.5280   -5.3960    4.3420 hn        1 MOL      0.284709
     39 H19        -6.9340   -4.7180    5.8500 hn        1 MOL      0.284709
     40 H20        -8.5050   -4.7010    5.4690 hn        1 MOL      0.284709
     41 N4         -5.8240    0.3500   -0.6830 n         1 MOL     -0.849277
     42 C13        -5.0040   -0.0600   -1.7760 c3        1 MOL      0.536611
     43 C14        -3.4360    0.0890   -1.3720 c         1 MOL      0.283393
     44 O6         -3.0140    0.9370   -0.5710 o         1 MOL     -0.482970
     45 C15        -5.3580    0.7740   -3.0010 c3        1 MOL     -0.417662
     46 C16        -5.6580    2.2720   -2.7220 c         1 MOL      0.809180
     47 O7         -4.7410    3.1110   -2.6430 o         1 MOL     -0.752573
     48 O8         -6.8170    2.6940   -2.3660 o         1 MOL     -0.752573
     49 H21        -5.4830    1.0870   -0.0850 hn        1 MOL      0.317249
     50 H22        -5.2360   -1.1190   -1.9130 h1        1 MOL      0.013110
     51 H23        -6.2460    0.3350   -3.4620 hc        1 MOL      0.109372
     52 H24        -4.4590    0.8130   -3.6180 hc        1 MOL      0.109372
     53 N5         -2.5560   -0.6750   -1.9870 n         1 MOL     -0.280988
     54 C17        -2.8510   -1.8070   -2.9430 c3        1 MOL     -0.160428
     55 C18        -3.1730   -3.1610   -2.2280 c         1 MOL      0.543684
     56 O9         -3.5320   -3.1570   -1.0050 o         1 MOL     -0.496482
     57 H25        -1.6110   -0.5080   -1.6850 hn        1 MOL      0.304174
     58 H26        -1.9460   -2.0780   -3.4940 h1        1 MOL      0.090317
     59 H27        -3.6770   -1.5440   -3.5990 h1        1 MOL      0.090317
     60 N6         -3.1610   -4.3050   -2.8540 n         1 MOL     -0.410690
     61 C19        -3.5920   -5.6720   -2.3120 c3        1 MOL     -0.007971
     62 C20        -2.5700   -6.1180   -1.2020 c         1 MOL      0.524371
     63 O10        -3.0360   -6.7320   -0.2710 o         1 MOL     -0.505561
     64 C21        -3.8600   -6.7110   -3.3990 c3        1 MOL     -0.197493
     65 C22        -4.9460   -6.3390   -4.4520 c         1 MOL      0.679143
     66 O11        -5.9300   -5.5820   -4.1230 o         1 MOL     -0.651324
     67 O12        -4.9350   -6.8120   -5.6280 o         1 MOL     -0.651324
     68 H28        -2.8800   -4.2370   -3.8240 hn        1 MOL      0.296815
     69 H29        -4.5100   -5.5700   -1.7400 h1        1 MOL      0.106980
     70 H30        -4.2320   -7.6410   -2.9630 hc        1 MOL      0.053426
     71 H31        -2.9370   -6.9510   -3.9250 hc        1 MOL      0.053426
     72 N7         -1.2250   -5.8220   -1.2540 n         1 MOL     -0.408742
     73 C23        -0.2410   -5.9320   -0.1920 c3        1 MOL      0.004260
     74 C24        -0.4570   -4.9380    0.9740 c         1 MOL      0.448055
     75 O13         0.0880   -5.1340    2.0860 o         1 MOL     -0.553705
     76 H32        -0.9890   -5.2160   -2.0400 hn        1 MOL      0.258687
     77 H33         0.7640   -5.7940   -0.5910 h1        1 MOL      0.076588
     78 H34        -0.2900   -6.9630    0.1710 h1        1 MOL      0.076588
     79 N8         -1.2420   -3.8380    0.7470 n         1 MOL     -0.229610
     80 C25        -1.3080   -2.5060    1.5140 c3        1 MOL      0.371807
     81 C26        -0.4770   -1.4720    0.7640 c         1 MOL      0.265728
     82 O14        -0.3110   -1.5640   -0.4320 o         1 MOL     -0.462656
     83 C27        -2.7130   -2.1180    1.9330 c3        1 MOL      0.257820
     84 C28        -3.5460   -3.2140    2.6700 c3        1 MOL     -0.372191
     85 O15        -2.6720   -1.0390    2.9610 oh        1 MOL     -0.570283
     86 H35        -1.8560   -3.8600   -0.0480 hn        1 MOL      0.053241
     87 H36        -0.7290   -2.7210    2.4150 h1        1 MOL      0.014282
     88 H37        -3.2290   -1.8210    1.0310 h1        1 MOL      0.038167
     89 H38        -3.2280   -0.3370    2.6010 ho        1 MOL      0.305553
     90 H39        -3.1790   -4.2170    2.4410 hc        1 MOL      0.097462
     91 H40        -3.4340   -2.9880    3.7350 hc        1 MOL      0.097462
     92 H41        -4.5690   -3.0690    2.3150 hc        1 MOL      0.097462
     93 N9         -0.0240   -0.4570    1.4590 n         1 MOL     -0.341517
     94 C29         0.7500    0.7220    0.9180 c3        1 MOL     -0.440994
     95 C30         2.1750    0.3680    0.4670 c         1 MOL      0.749127
     96 O16         2.8130    1.2350   -0.0540 o         1 MOL     -0.552035
     97 C31         0.7490    1.8230    1.9850 c3        1 MOL      0.303693
     98 C32         1.3070    1.4780    3.4210 c3        1 MOL      0.005402
     99 C33        -0.7480    2.1840    2.1340 c3        1 MOL     -0.346455
    100 C34         1.4450    2.7280    4.2950 c3        1 MOL     -0.276536
    101 H42        -0.2770   -0.5290    2.4310 hn        1 MOL      0.222486
    102 H43         0.2210    1.1380    0.0590 h1        1 MOL      0.212106
    103 H44         1.2870    2.6640    1.5420 hc        1 MOL      0.015757
    104 H45         2.2860    1.0020    3.4080 hc        1 MOL      0.038296
    105 H46         0.5820    0.8260    3.9080 hc        1 MOL      0.038296
    106 H47        -1.1930    2.3290    1.1600 hc        1 MOL      0.085878
    107 H48        -1.3000    1.4900    2.7730 hc        1 MOL      0.085878
    108 H49        -0.8770    3.0800    2.7380 hc        1 MOL      0.085878
    109 H50         1.4150    2.4570    5.3520 hc        1 MOL      0.069771
    110 H51         2.3640    3.2650    4.0470 hc        1 MOL      0.069771
    111 H52         0.5290    3.3040    4.1980 hc        1 MOL      0.069771
    112 N10         2.6930   -0.8690    0.7180 n         1 MOL     -0.571036
    113 C35         3.9420   -1.3840    0.1250 c3        1 MOL      0.008116
    114 C36         4.8050   -2.0910    1.1410 c         1 MOL      0.767419
    115 O17         4.3580   -2.6590    2.1380 o         1 MOL     -0.566330
    116 C37         3.5780   -2.3410   -1.0880 c3        1 MOL      0.254121
    117 C38         3.0130   -3.6630   -0.6110 c3        1 MOL     -0.119051
    118 O18         2.7170   -1.7790   -2.0300 oh        1 MOL     -0.532753
    119 H53         2.1010   -1.4880    1.2470 hn        1 MOL      0.278237
    120 H54         4.6410   -0.6140   -0.1700 h1        1 MOL      0.038859
    121 H55         4.5280   -2.6180   -1.5450 h1        1 MOL     -0.037969
    122 H56         3.1310   -0.9280   -2.2060 ho        1 MOL      0.377633
    123 H57         2.0660   -3.4920   -0.1050 hc        1 MOL      0.041599
    124 H58         2.8900   -4.2750   -1.5030 hc        1 MOL      0.041599
    125 H59         3.6750   -4.1360    0.1090 hc        1 MOL      0.041599
    126 N11         6.0770   -1.9830    0.9450 n         1 MOL     -0.636390
    127 C39         7.0200   -2.5000    1.9480 c3        1 MOL      0.074292
    128 C40         8.1350   -1.5090    2.2990 c         1 MOL      0.567251
    129 O19         8.5230   -1.3290    3.4480 o         1 MOL     -0.546148
    130 C41         7.7570   -3.7370    1.4490 c3        1 MOL      0.272735
    131 C42         8.7900   -4.2790    2.4490 c3        1 MOL     -0.464264
    132 O20         8.3870   -3.6120    0.2240 oh        1 MOL     -0.618776
    133 H60         6.3240   -1.8590   -0.0320 hn        1 MOL      0.336063
    134 H61         6.5350   -2.7310    2.8960 h1        1 MOL      0.107764
    135 H62         6.9470   -4.4540    1.3430 h1        1 MOL      0.033298
    136 H63         9.1390   -4.2140    0.2130 ho        1 MOL      0.397749
    137 H64         8.4440   -3.9780    3.4380 hc        1 MOL      0.130464
    138 H65         8.9590   -5.3460    2.2800 hc        1 MOL      0.130464
    139 H66         9.7660   -3.8160    2.2680 hc        1 MOL      0.130464
    140 N12         8.5860   -0.7800    1.2900 n         1 MOL     -0.406256
    141 C43         9.7950    0.0920    1.3590 c3        1 MOL     -0.047503
    142 C44         9.8410    1.1300    0.2470 c         1 MOL      0.569602
    143 O21         9.2740    0.8710   -0.8610 o         1 MOL     -0.539103
    144 C45        11.0040   -0.8800    1.3460 c3        1 MOL     -0.258749
    145 C46        11.2470   -1.6870    0.0650 c3        1 MOL      0.029235
    146 C47        12.1480   -1.0660   -0.9840 c3        1 MOL     -0.027916
    147 C48        12.4930   -2.0230   -2.1730 c3        1 MOL      0.045787
    148 N13        12.9090   -1.2870   -3.3540 n4        1 MOL     -0.226284
    149 H67         8.1850   -0.8910    0.3750 hn        1 MOL      0.250947
    150 H68         9.6980    0.5170    2.3530 h1        1 MOL      0.136382
    151 H69        10.9040   -1.6180    2.1500 hc        1 MOL      0.103331
    152 H70        11.9540   -0.3910    1.5310 hc        1 MOL      0.103331
    153 H71        10.3900   -2.1640   -0.4120 hc        1 MOL      0.025465
    154 H72        11.7840   -2.5310    0.4910 hc        1 MOL      0.025465
    155 H73        13.0360   -0.6650   -0.4970 hc        1 MOL      0.039650
    156 H74        11.5940   -0.2570   -1.4630 hc        1 MOL      0.039650
    157 H75        11.5890   -2.6190   -2.3380 hx        1 MOL      0.050107
    158 H76        13.2300   -2.7710   -1.8750 hx        1 MOL      0.050107
    159 H77        13.8970   -1.3840   -3.5110 hn        1 MOL      0.264891
    160 H78        12.4840   -1.7480   -4.1500 hn        1 MOL      0.264891
    161 H79        12.5690   -0.3410   -3.3170 hn        1 MOL      0.264891
    162 N14        10.3460    2.3060    0.4620 n         1 MOL     -0.507498
    163 C49        10.5190    3.2970   -0.6190 c3        1 MOL      0.257894
    164 C50         9.2820    3.8220   -1.2520 c         1 MOL      0.374840
    165 O22         9.2960    3.8660   -2.4540 o         1 MOL     -0.547846
    166 C51        11.4760    4.4470   -0.1700 c3        1 MOL     -0.195332
    167 C52        11.7620    5.5770   -1.2010 c3        1 MOL     -0.048062
    168 C53        12.8140    6.5780   -0.6820 c         1 MOL      0.659703
    169 O23        12.4590    7.5980   -0.0130 o         1 MOL     -0.665323
    170 O24        13.9900    6.3210   -0.9930 o         1 MOL     -0.665323
    171 H80        10.7210    2.4840    1.3900 hn        1 MOL      0.279276
    172 H81        11.1160    2.8260   -1.3970 h1        1 MOL      0.041365
    173 H82        12.4670    4.0100   -0.0020 hc        1 MOL      0.053658
    174 H83        10.9940    4.9380    0.6790 hc        1 MOL      0.053658
    175 H84        10.8450    6.0910   -1.4900 hc        1 MOL      0.008283
    176 H85        12.1790    5.1600   -2.1250 hc        1 MOL      0.008283
    177 N15         8.2080    4.2730   -0.6190 n         1 MOL     -0.237843
    178 C54         7.7960    4.2670    0.8030 c3        1 MOL     -0.163559
    179 H86         8.3140    3.4650    1.3290 h1        1 MOL      0.087754
    180 H87         8.0500    5.2240    1.2590 h1        1 MOL      0.087754
    181 H88         6.7190    4.1070    0.8700 h1        1 MOL      0.087754
    182 H89         7.4610    4.4520   -1.2700 hn        1 MOL      0.260487
    183 Ca1        -6.1090    4.8120   -0.7610 Ca        1 MOL      1.786849
    184 O25        -4.4640    2.9290    0.4410 oh        1 MOL     -0.913889
    185 H90        -4.5110    2.4930    1.2890 ho        1 MOL      0.439300
    186 H91        -3.7730    2.4580   -0.0280 ho        1 MOL      0.439300
    187 O26        -3.7610    5.4570   -1.8710 oh        1 MOL     -0.913889
    188 H92        -3.3030    6.1430   -2.3540 ho        1 MOL      0.439300
    189 H93        -3.5450    4.6550   -2.3340 ho        1 MOL      0.439300
    190 O27        -6.3300    5.7150   -3.1590 oh        1 MOL     -0.913889
    191 H94        -5.7070    5.2830   -3.7420 ho        1 MOL      0.439300
    192 H95        -6.8740    6.2470   -3.7410 ho        1 MOL      0.439300
@<TRIPOS>BOND
     1    1    2 1   
     2    1    4 1   
     3    1    5 1   
     4    1    6 1   
     5    2    3 2   
     6    2    7 1   
     7    7    8 1   
     8    7   15 1   
     9    8    9 1   
    10    8   11 1   
    11    8   16 1   
    12    9   10 2   
    13    9   19 1   
    14   11   12 1   
    15   11   17 1   
    16   11   18 1   
    17   12   13 1   
    18   12   14 1   
    19   19   20 1   
    20   19   28 1   
    21   20   21 1   
    22   20   23 1   
    23   20   29 1   
    24   21   22 2   
    25   21   41 1   
    26   23   24 1   
    27   23   30 1   
    28   23   31 1   
    29   24   25 1   
    30   24   32 1   
    31   24   33 1   
    32   25   26 1   
    33   25   34 1   
    34   25   35 1   
    35   26   27 1   
    36   26   36 1   
    37   26   37 1   
    38   27   38 1   
    39   27   39 1   
    40   27   40 1   
    41   41   42 1   
    42   41   49 1   
    43   42   43 1   
    44   42   45 1   
    45   42   50 1   
    46   43   44 2   
    47   43   53 1   
    48   45   46 1   
    49   45   51 1   
    50   45   52 1   
    51   46   47 1   
    52   46   48 1   
    53   53   54 1   
    54   53   57 1   
    55   54   55 1   
    56   54   58 1   
    57   54   59 1   
    58   55   56 2   
    59   55   60 1   
    60   60   61 1   
    61   60   68 1   
    62   61   62 1   
    63   61   64 1   
    64   61   69 1   
    65   62   63 2   
    66   62   72 1   
    67   64   65 1   
    68   64   70 1   
    69   64   71 1   
    70   65   66 1   
    71   65   67 1   
    72   72   73 1   
    73   72   76 1   
    74   73   74 1   
    75   73   77 1   
    76   73   78 1   
    77   74   75 2   
    78   74   79 1   
    79   79   80 1   
    80   79   86 1   
    81   80   81 1   
    82   80   83 1   
    83   80   87 1   
    84   81   82 2   
    85   81   93 1   
    86   83   84 1   
    87   83   85 1   
    88   83   88 1   
    89   84   90 1   
    90   84   91 1   
    91   84   92 1   
    92   85   89 1   
    93   93   94 1   
    94   93  101 1   
    95   94   95 1   
    96   94   97 1   
    97   94  102 1   
    98   95   96 2   
    99   95  112 1   
   100   97   98 1   
   101   97   99 1   
   102   97  103 1   
   103   98  100 1   
   104   98  104 1   
   105   98  105 1   
   106   99  106 1   
   107   99  107 1   
   108   99  108 1   
   109  100  109 1   
   110  100  110 1   
   111  100  111 1   
   112  112  113 1   
   113  112  119 1   
   114  113  114 1   
   115  113  116 1   
   116  113  120 1   
   117  114  115 2   
   118  114  126 1   
   119  116  117 1   
   120  116  118 1   
   121  116  121 1   
   122  117  123 1   
   123  117  124 1   
   124  117  125 1   
   125  118  122 1   
   126  126  127 1   
   127  126  133 1   
   128  127  128 1   
   129  127  130 1   
   130  127  134 1   
   131  128  129 2   
   132  128  140 1   
   133  130  131 1   
   134  130  132 1   
   135  130  135 1   
   136  131  137 1   
   137  131  138 1   
   138  131  139 1   
   139  132  136 1   
   140  140  141 1   
   141  140  149 1   
   142  141  142 1   
   143  141  144 1   
   144  141  150 1   
   145  142  143 2   
   146  142  162 1   
   147  144  145 1   
   148  144  151 1   
   149  144  152 1   
   150  145  146 1   
   151  145  153 1   
   152  145  154 1   
   153  146  147 1   
   154  146  155 1   
   155  146  156 1   
   156  147  148 1   
   157  147  157 1   
   158  147  158 1   
   159  148  159 1   
   160  148  160 1   
   161  148  161 1   
   162  162  163 1   
   163  162  171 1   
   164  163  164 1   
   165  163  166 1   
   166  163  172 1   
   167  164  165 2   
   168  164  177 1   
   169  166  167 1   
   170  166  173 1   
   171  166  174 1   
   172  167  168 1   
   173  167  175 1   
   174  167  176 1   
   175  168  169 1   
   176  168  170 1   
   177  177  178 1   
   178  177  182 1   
   179  178  179 1   
   180  178  180 1   
   181  178  181 1   
   182  184  185 1   
   183  184  186 1   
   184  187  188 1   
   185  187  189 1   
   186  190  191 1   
   187  190  192 1   
@<TRIPOS>SUBSTRUCTURE
     1 MOL         1 TEMP              0 ****  ****    0 ROOT
