@<TRIPOS>MOLECULE
MOL
  188   182     1     0     0
SMALL
resp


@<TRIPOS>ATOM
      1 C1          5.4050   -0.2090    4.4760 c3        1 MOL     -0.329745
      2 C2          5.7180    0.5210    3.1320 c         1 MOL      0.688603
      3 O1          4.9720    0.3770    2.1590 o         1 MOL     -0.508664
      4 H1          6.3080   -0.2520    5.0840 hc        1 MOL      0.089817
      5 H2          4.6300    0.3380    5.0140 hc        1 MOL      0.089817
      6 H3          5.0580   -1.2210    4.2690 hc        1 MOL      0.089817
      7 N1          6.8330    1.2870    3.0160 n         1 MOL     -0.560385
      8 C3          7.2130    1.9850    1.7500 c3        1 MOL     -0.190127
      9 C4          7.5910    1.1010    0.4880 c         1 MOL      0.612548
     10 O2          7.8950    1.6330   -0.5820 o         1 MOL     -0.540364
     11 C5          6.2900    3.1420    1.3970 c3        1 MOL     -0.297539
     12 C6          6.0990    4.0540    2.6420 c         1 MOL      0.896968
     13 O3          6.9300    5.0120    2.8410 o         1 MOL     -0.688177
     14 O4          5.1150    3.9730    3.3900 o         1 MOL     -0.688177
     15 H4          7.4740    1.2310    3.7930 hn        1 MOL      0.342076
     16 H5          8.1610    2.4490    2.0180 h1        1 MOL      0.118297
     17 H6          5.3200    2.7880    1.0350 hc        1 MOL      0.113915
     18 H7          6.6990    3.7730    0.6090 hc        1 MOL      0.113915
     19 N2          7.6790   -0.1880    0.6630 n         1 MOL     -0.348915
     20 C7          7.8690   -1.2170   -0.3900 c3        1 MOL      0.053623
     21 C8          6.6970   -2.1880   -0.5950 c         1 MOL      0.545760
     22 O5          6.7940   -3.1710   -1.3640 o         1 MOL     -0.589615
     23 C9          9.1600   -1.9510   -0.0560 c3        1 MOL     -0.119421
     24 C10         9.9920   -2.4520   -1.2800 c3        1 MOL      0.301721
     25 C11        11.2570   -3.2260   -1.0280 c3        1 MOL     -0.263223
     26 C12        12.5250   -2.3060   -0.7950 c3        1 MOL      0.007034
     27 N3         13.5390   -2.9910    0.0920 n4        1 MOL     -0.178950
     28 H8          7.5490   -0.5170    1.6150 hn        1 MOL      0.198680
     29 H9          8.0560   -0.7070   -1.3310 h1        1 MOL      0.064575
     30 H10         8.9600   -2.7910    0.6150 hc        1 MOL      0.011614
     31 H11         9.7880   -1.2490    0.4870 hc        1 MOL      0.011614
     32 H12        10.3590   -1.6010   -1.8510 hc        1 MOL     -0.021501
     33 H13         9.3650   -3.0490   -1.9510 hc        1 MOL     -0.021501
     34 H14        11.2730   -3.7920   -1.9590 hc        1 MOL      0.083122
     35 H15        11.2020   -3.8850   -0.1590 hc        1 MOL      0.083122
     36 H16        12.2660   -1.3080   -0.4370 hx        1 MOL      0.093468
     37 H17        13.1560   -2.1280   -1.6640 hx        1 MOL      0.093468
     38 H18        13.0580   -3.2330    0.9430 hn        1 MOL      0.218286
     39 H19        13.7600   -3.9390   -0.1780 hn        1 MOL      0.218286
     40 H20        14.3310   -2.4280    0.3710 hn        1 MOL      0.218286
     41 N4          5.5240   -1.9270    0.0030 n         1 MOL     -0.387329
     42 C13         4.2510   -2.6640   -0.2360 c3        1 MOL     -0.037795
     43 C14         3.6260   -2.1950   -1.5290 c         1 MOL      0.560602
     44 O6          3.5610   -0.9860   -1.8230 o         1 MOL     -0.485660
     45 C15         3.2850   -2.4800    1.0020 c3        1 MOL     -0.111057
     46 C16         2.0140   -3.2720    0.8310 c         1 MOL      0.827150
     47 O7          1.2280   -2.9770   -0.0680 o         1 MOL     -0.781115
     48 O8          1.9100   -4.3720    1.4400 o         1 MOL     -0.781115
     49 H21         5.4740   -1.0800    0.5390 hn        1 MOL      0.237814
     50 H22         4.5220   -3.7110   -0.3300 h1        1 MOL      0.080898
     51 H23         2.9240   -1.4530    1.0600 hc        1 MOL      0.039482
     52 H24         3.7620   -2.5630    1.9800 hc        1 MOL      0.039482
     53 N5          3.1410   -3.1150   -2.3660 n         1 MOL     -0.382511
     54 C17         2.5740   -2.8860   -3.7230 c3        1 MOL     -0.197753
     55 C18         1.4760   -1.7250   -3.8260 c         1 MOL      0.445854
     56 O9          1.2620   -1.2630   -4.9340 o         1 MOL     -0.549157
     57 H25         3.1750   -4.0720   -2.0590 hn        1 MOL      0.289085
     58 H26         2.1440   -3.7720   -4.1860 h1        1 MOL      0.127397
     59 H27         3.3740   -2.5300   -4.3690 h1        1 MOL      0.127397
     60 N6          0.8750   -1.2510   -2.7430 n         1 MOL     -0.062229
     61 C19        -0.2070   -0.3270   -2.7620 c3        1 MOL     -0.008477
     62 C20         0.2640    1.1130   -2.4410 c         1 MOL      0.467300
     63 O10        -0.6010    1.9940   -2.6670 o         1 MOL     -0.547897
     64 C21        -1.2420   -0.7800   -1.6950 c3        1 MOL     -0.325890
     65 C22        -1.8580   -2.0920   -2.1360 c         1 MOL      0.631502
     66 N7         -2.8950   -1.9830   -2.8980 n         1 MOL     -0.620692
     67 O11        -1.3860   -3.1610   -1.8810 o         1 MOL     -0.634853
     68 H28         0.9830   -1.7660   -1.8900 hn        1 MOL      0.126283
     69 H29        -0.6890   -0.2950   -3.7380 h1        1 MOL      0.072800
     70 H30        -2.1050   -0.1150   -1.6270 hc        1 MOL      0.124249
     71 H31        -0.7730   -0.8160   -0.7150 hc        1 MOL      0.124249
     72 H32        -3.3280   -1.1110   -3.1520 hn        1 MOL      0.330710
     73 H33        -3.2790   -2.8140   -3.3240 hn        1 MOL      0.330710
     74 N8          1.5200    1.3690   -2.0210 n         1 MOL     -0.240518
     75 C23         1.9880    2.7510   -1.7530 c3        1 MOL     -0.166999
     76 C24         1.1560    3.4340   -0.6750 c         1 MOL      0.619879
     77 O12         1.0630    2.9440    0.4950 o         1 MOL     -0.544119
     78 H34         2.2230    0.6510   -1.9320 hn        1 MOL      0.227689
     79 H35         1.9790    3.2240   -2.7390 h1        1 MOL      0.094504
     80 H36         3.0410    2.6300   -1.4650 h1        1 MOL      0.094504
     81 N9          0.4700    4.4830   -1.1160 n         1 MOL     -0.447865
     82 C25        -0.6130    5.2960   -0.4510 c3        1 MOL     -0.037088
     83 C26        -1.8290    4.6060    0.0570 c         1 MOL      0.591712
     84 O13        -2.7400    5.2790    0.5100 o         1 MOL     -0.510807
     85 C27        -0.0470    6.0020    0.7840 c3        1 MOL     -0.253404
     86 C28         1.0170    6.9990    0.5400 ca        1 MOL      0.006985
     87 C29         2.3750    6.7490    0.7850 ca        1 MOL     -0.045249
     88 C30         0.7000    8.2330   -0.0390 ca        1 MOL     -0.045249
     89 C31         3.3330    7.6860    0.5360 ca        1 MOL     -0.322236
     90 C32         1.6750    9.2550   -0.2630 ca        1 MOL     -0.322236
     91 C33         3.0010    8.9650    0.0100 ca        1 MOL      0.331948
     92 O14         4.0130    9.8750   -0.1470 oh        1 MOL     -0.435304
     93 H37         0.5840    4.6490   -2.1040 hn        1 MOL      0.301872
     94 H38        -1.0990    6.0460   -1.0710 h1        1 MOL      0.100153
     95 H39         0.2390    5.3360    1.6100 hc        1 MOL      0.138461
     96 H40        -0.8260    6.6010    1.2500 hc        1 MOL      0.138461
     97 H41         2.7610    5.7870    1.0880 ha        1 MOL      0.089470
     98 H42        -0.2850    8.5580   -0.3300 ha        1 MOL      0.089470
     99 H43         4.3670    7.4550    0.7630 ha        1 MOL      0.159427
    100 H44         1.3480   10.2440   -0.5200 ha        1 MOL      0.159427
    101 H45         3.7160   10.7040   -0.5410 ho        1 MOL      0.323503
    102 N10        -1.8160    3.2750    0.1180 n         1 MOL     -0.611032
    103 C34        -2.9180    2.4260    0.5850 c3        1 MOL      0.046291
    104 C35        -4.1540    2.4990   -0.3560 c         1 MOL      0.372275
    105 O15        -4.7390    1.4870   -0.6570 o         1 MOL     -0.491421
    106 C36        -3.2730    2.6520    2.1090 c3        1 MOL      0.041388
    107 C37        -2.0890    2.5610    3.0660 c3        1 MOL      0.105517
    108 C38        -4.4510    1.7880    2.5660 c3        1 MOL     -0.497801
    109 C39        -1.2340    1.2880    2.9330 c3        1 MOL     -0.017810
    110 H46        -0.9940    2.6970    0.0200 hn        1 MOL      0.423059
    111 H47        -2.5880    1.3820    0.5620 h1        1 MOL      0.055424
    112 H48        -3.6820    3.6680    2.1260 hc        1 MOL      0.022914
    113 H49        -2.3990    2.6770    4.0960 hc        1 MOL     -0.008499
    114 H50        -1.4680    3.4310    2.8340 hc        1 MOL     -0.008499
    115 H51        -5.3770    2.0690    2.0600 hc        1 MOL      0.135407
    116 H52        -4.3470    0.7080    2.4260 hc        1 MOL      0.135407
    117 H53        -4.6190    1.9330    3.6370 hc        1 MOL      0.135407
    118 H54        -0.4970    1.2480    3.7390 hc        1 MOL      0.012062
    119 H55        -1.8610    0.4130    3.0880 hc        1 MOL      0.012062
    120 H56        -0.6490    1.1910    2.0310 hc        1 MOL      0.012062
    121 N11        -4.4900    3.5970   -0.8970 n         1 MOL     -0.183798
    122 C40        -5.5200    3.7350   -1.9840 c3        1 MOL     -0.033659
    123 C41        -6.9000    3.2180   -1.6330 c         1 MOL      0.228816
    124 O16        -7.6590    2.8110   -2.4660 o         1 MOL     -0.423425
    125 C42        -5.7470    5.2360   -2.2940 c3        1 MOL      0.271647
    126 O17        -4.4940    5.8180   -2.1710 oh        1 MOL     -0.590334
    127 H57        -4.0070    4.3940   -0.4910 hn        1 MOL      0.227887
    128 H58        -5.0790    3.2950   -2.8870 h1        1 MOL      0.089865
    129 H59        -6.3800    5.7480   -1.5780 h1        1 MOL      0.021248
    130 H60        -6.2070    5.3070   -3.2780 h1        1 MOL      0.021248
    131 H61        -3.9650    5.3670   -2.8230 ho        1 MOL      0.379578
    132 N12        -7.2310    3.2800   -0.3230 n         1 MOL     -0.198821
    133 C43        -8.3130    2.5590    0.3570 c3        1 MOL      0.279420
    134 C44        -8.5340    1.0690   -0.0190 c         1 MOL      0.310553
    135 O18        -9.7240    0.6320   -0.2280 o         1 MOL     -0.527641
    136 C45        -9.5480    3.4330    0.2390 c3        1 MOL     -0.363666
    137 H62        -6.6360    3.9320    0.1780 hn        1 MOL      0.197656
    138 H63        -8.0580    2.6170    1.4100 h1        1 MOL      0.036346
    139 H64        -9.2380    4.4600    0.3970 hc        1 MOL      0.090741
    140 H65        -9.8090    3.3910   -0.8110 hc        1 MOL      0.090741
    141 H66       -10.3130    3.2730    0.9990 hc        1 MOL      0.090741
    142 N13        -7.4880    0.3320   -0.2870 n         1 MOL     -0.244210
    143 C46        -7.4800   -1.0780   -0.7640 c3        1 MOL      0.421278
    144 C47        -6.7410   -2.0210    0.1500 c         1 MOL      0.254847
    145 O19        -5.8020   -1.5780    0.7950 o         1 MOL     -0.456065
    146 C48        -6.8480   -1.0620   -2.1470 c3        1 MOL     -0.274131
    147 H67        -6.5760    0.7700   -0.2170 hn        1 MOL      0.077303
    148 H68        -8.4730   -1.5160   -0.7660 h1        1 MOL     -0.044678
    149 H69        -6.2050   -1.9350   -2.2550 hc        1 MOL      0.069477
    150 H70        -7.5600   -0.9790   -2.9750 hc        1 MOL      0.069477
    151 H71        -6.2140   -0.1990   -2.3180 hc        1 MOL      0.069477
    152 N14        -7.1150   -3.2970    0.1320 n         1 MOL     -0.256101
    153 C49        -6.7220   -4.3150    1.1340 c3        1 MOL      0.174831
    154 C50        -7.2250   -4.0100    2.5690 c         1 MOL      0.350509
    155 O20        -6.5660   -4.4710    3.4990 o         1 MOL     -0.434504
    156 C51        -5.2330   -4.5510    1.0060 c3        1 MOL     -0.177780
    157 C52        -4.6890   -5.8840    1.4980 c3        1 MOL     -0.165626
    158 C53        -3.1650   -6.1880    1.3300 c         1 MOL      0.864308
    159 O21        -2.6680   -7.0840    2.0180 o         1 MOL     -0.772949
    160 O22        -2.5830   -5.7750    0.3180 o         1 MOL     -0.772949
    161 H72        -7.8430   -3.5710   -0.5220 hn        1 MOL      0.208633
    162 H73        -7.2780   -5.1910    0.8050 h1        1 MOL      0.006695
    163 H74        -4.6830   -3.8120    1.5880 hc        1 MOL      0.051981
    164 H75        -5.0120   -4.4420   -0.0590 hc        1 MOL      0.051981
    165 H76        -5.1850   -6.7400    1.0300 hc        1 MOL      0.046723
    166 H77        -4.8970   -5.9780    2.5690 hc        1 MOL      0.046723
    167 N15        -8.3730   -3.2950    2.7300 n         1 MOL     -0.321187
    168 C54        -8.7230   -2.7560    4.0450 c3        1 MOL      0.058165
    169 H78        -7.8620   -2.8350    4.7100 h1        1 MOL      0.035951
    170 H79        -9.0080   -1.7090    3.9450 h1        1 MOL      0.035951
    171 H80        -9.5570   -3.3220    4.4610 h1        1 MOL      0.035951
    172 H81        -8.9260   -3.0860    1.9040 hn        1 MOL      0.230475
    173 Ca1        -0.1370   -5.1280   -0.2270 Ca        1 MOL      1.785030
    174 O23        -0.3030   -6.2680    2.2700 oh        1 MOL     -0.846235
    175 H82        -1.1770   -6.6400    2.3280 ho        1 MOL      0.413828
    176 H83         0.1900   -6.6680    2.9860 ho        1 MOL      0.413828
    177 O24         0.3800   -5.2720   -2.8340 oh        1 MOL     -0.846235
    178 H84        -0.3610   -4.9770   -3.3540 ho        1 MOL      0.413828
    179 H85         0.9960   -5.6410   -3.4650 ho        1 MOL      0.413828
    180 O25         1.9210   -6.8410   -0.4050 oh        1 MOL     -0.846235
    181 H86         2.6790   -6.8390    0.1860 ho        1 MOL      0.413828
    182 H87         1.8050   -7.7530   -0.6400 ho        1 MOL      0.413828
    183 O26        -1.2050   -3.4440    1.6940 oh        1 MOL     -0.846235
    184 H88        -1.9220   -2.9570    1.2930 ho        1 MOL      0.413828
    185 H89        -0.7060   -2.7850    2.1730 ho        1 MOL      0.413828
    186 O27        -0.9090   -7.6660   -0.9890 oh        1 MOL     -0.846235
    187 H90        -0.4680   -8.4940   -1.1670 ho        1 MOL      0.413828
    188 H91        -1.8230   -7.8090   -1.2810 ho        1 MOL      0.413828
@<TRIPOS>BOND
     1    1    2 1   
     2    1    4 1   
     3    1    5 1   
     4    1    6 1   
     5    2    3 2   
     6    2    7 1   
     7    7    8 1   
     8    7   15 1   
     9    8    9 1   
    10    8   11 1   
    11    8   16 1   
    12    9   10 2   
    13    9   19 1   
    14   11   12 1   
    15   11   17 1   
    16   11   18 1   
    17   12   13 1   
    18   12   14 1   
    19   19   20 1   
    20   19   28 1   
    21   20   21 1   
    22   20   23 1   
    23   20   29 1   
    24   21   22 2   
    25   21   41 1   
    26   23   24 1   
    27   23   30 1   
    28   23   31 1   
    29   24   25 1   
    30   24   32 1   
    31   24   33 1   
    32   25   26 1   
    33   25   34 1   
    34   25   35 1   
    35   26   27 1   
    36   26   36 1   
    37   26   37 1   
    38   27   38 1   
    39   27   39 1   
    40   27   40 1   
    41   41   42 1   
    42   41   49 1   
    43   42   43 1   
    44   42   45 1   
    45   42   50 1   
    46   43   44 2   
    47   43   53 1   
    48   45   46 1   
    49   45   51 1   
    50   45   52 1   
    51   46   47 1   
    52   46   48 1   
    53   53   54 1   
    54   53   57 1   
    55   54   55 1   
    56   54   58 1   
    57   54   59 1   
    58   55   56 2   
    59   55   60 1   
    60   60   61 1   
    61   60   68 1   
    62   61   62 1   
    63   61   64 1   
    64   61   69 1   
    65   62   63 2   
    66   62   74 1   
    67   64   65 1   
    68   64   70 1   
    69   64   71 1   
    70   65   66 1   
    71   65   67 2   
    72   66   72 1   
    73   66   73 1   
    74   74   75 1   
    75   74   78 1   
    76   75   76 1   
    77   75   79 1   
    78   75   80 1   
    79   76   77 2   
    80   76   81 1   
    81   81   82 1   
    82   81   93 1   
    83   82   83 1   
    84   82   85 1   
    85   82   94 1   
    86   83   84 2   
    87   83  102 1   
    88   85   86 1   
    89   85   95 1   
    90   85   96 1   
    91   86   87 ar  
    92   86   88 ar  
    93   87   89 ar  
    94   87   97 1   
    95   88   90 ar  
    96   88   98 1   
    97   89   91 ar  
    98   89   99 1   
    99   90   91 ar  
   100   90  100 1   
   101   91   92 1   
   102   92  101 1   
   103  102  103 1   
   104  102  110 1   
   105  103  104 1   
   106  103  106 1   
   107  103  111 1   
   108  104  105 2   
   109  104  121 1   
   110  106  107 1   
   111  106  108 1   
   112  106  112 1   
   113  107  109 1   
   114  107  113 1   
   115  107  114 1   
   116  108  115 1   
   117  108  116 1   
   118  108  117 1   
   119  109  118 1   
   120  109  119 1   
   121  109  120 1   
   122  121  122 1   
   123  121  127 1   
   124  122  123 1   
   125  122  125 1   
   126  122  128 1   
   127  123  124 2   
   128  123  132 1   
   129  125  126 1   
   130  125  129 1   
   131  125  130 1   
   132  126  131 1   
   133  132  133 1   
   134  132  137 1   
   135  133  134 1   
   136  133  136 1   
   137  133  138 1   
   138  134  135 2   
   139  134  142 1   
   140  136  139 1   
   141  136  140 1   
   142  136  141 1   
   143  142  143 1   
   144  142  147 1   
   145  143  144 1   
   146  143  146 1   
   147  143  148 1   
   148  144  145 2   
   149  144  152 1   
   150  146  149 1   
   151  146  150 1   
   152  146  151 1   
   153  152  153 1   
   154  152  161 1   
   155  153  154 1   
   156  153  156 1   
   157  153  162 1   
   158  154  155 2   
   159  154  167 1   
   160  156  157 1   
   161  156  163 1   
   162  156  164 1   
   163  157  158 1   
   164  157  165 1   
   165  157  166 1   
   166  158  159 1   
   167  158  160 1   
   168  167  168 1   
   169  167  172 1   
   170  168  169 1   
   171  168  170 1   
   172  168  171 1   
   173  174  175 1   
   174  174  176 1   
   175  177  178 1   
   176  177  179 1   
   177  180  181 1   
   178  180  182 1   
   179  183  184 1   
   180  183  185 1   
   181  186  187 1   
   182  186  188 1   
@<TRIPOS>SUBSTRUCTURE
     1 MOL         1 TEMP              0 ****  ****    0 ROOT
