@<TRIPOS>MOLECULE
MOL
  198   191     1     0     0
SMALL
resp


@<TRIPOS>ATOM
      1 C1         -2.3320    7.6930   -3.5240 c3        1 MOL     -0.379379
      2 C2         -1.3580    7.2030   -2.4920 c         1 MOL      0.735984
      3 O1         -0.2030    7.1690   -2.7750 o         1 MOL     -0.618536
      4 H1         -3.2040    7.0390   -3.5410 hc        1 MOL      0.098246
      5 H2         -2.6440    8.7080   -3.2770 hc        1 MOL      0.098246
      6 H3         -1.8560    7.6870   -4.5050 hc        1 MOL      0.098246
      7 N1         -1.7570    6.8820   -1.2500 n         1 MOL     -0.557346
      8 C3         -0.9080    6.3250   -0.2080 c3        1 MOL      0.172485
      9 C4         -0.4140    4.8990   -0.6120 c         1 MOL      0.550545
     10 O2         -1.0500    4.1350   -1.2690 o         1 MOL     -0.485611
     11 C5         -1.7230    6.3650    1.0290 c3        1 MOL     -0.207720
     12 C6         -3.0680    5.7720    0.8290 c         1 MOL      0.668201
     13 O3         -3.1950    4.5390    0.9170 o         1 MOL     -0.684510
     14 O4         -3.9980    6.5310    0.5180 o         1 MOL     -0.684510
     15 H4         -2.7030    7.0990   -0.9650 hn        1 MOL      0.304095
     16 H5         -0.0270    6.9480   -0.0640 h1        1 MOL      0.020849
     17 H6         -1.8270    7.4190    1.3000 hc        1 MOL      0.032945
     18 H7         -1.2710    5.8020    1.8450 hc        1 MOL      0.032945
     19 N2          0.7580    4.5690   -0.0570 n         1 MOL     -0.651839
     20 C7          1.3280    3.2420   -0.2140 c3        1 MOL      0.354972
     21 C8          1.8500    2.7100    1.1460 c         1 MOL      0.429662
     22 O5          3.0490    2.3450    1.3540 o         1 MOL     -0.507732
     23 C9          2.3390    3.1350   -1.3840 c3        1 MOL     -0.176705
     24 C10         3.2850    4.3490   -1.3520 c3        1 MOL      0.438293
     25 C11         4.5180    4.1900   -2.1820 c3        1 MOL     -0.118072
     26 C12         5.3260    5.5280   -2.0570 c3        1 MOL     -0.014352
     27 N3          6.5570    5.4420   -1.2090 n4        1 MOL     -0.387233
     28 H8          1.2140    5.2370    0.5510 hn        1 MOL      0.284105
     29 H9          0.5250    2.5440   -0.4690 h1        1 MOL     -0.035292
     30 H10         1.8250    3.1310   -2.3440 hc        1 MOL      0.054289
     31 H11         3.0150    2.2980   -1.1640 hc        1 MOL      0.054289
     32 H12         3.4750    4.4260   -0.2820 hc        1 MOL     -0.104669
     33 H13         2.8270    5.2780   -1.6610 hc        1 MOL     -0.104669
     34 H14         4.2680    4.0390   -3.2280 hc        1 MOL      0.029329
     35 H15         5.1060    3.3510   -1.7980 hc        1 MOL      0.029329
     36 H16         4.6710    6.2930   -1.6420 hx        1 MOL      0.094002
     37 H17         5.7330    5.7680   -3.0400 hx        1 MOL      0.094002
     38 H18         6.9700    6.3660   -1.2350 hn        1 MOL      0.327016
     39 H19         6.2480    5.3360   -0.2550 hn        1 MOL      0.327016
     40 H20         7.1350    4.6680   -1.5050 hn        1 MOL      0.327016
     41 N4          0.9110    2.6890    2.1220 n         1 MOL     -0.398442
     42 C13         1.0170    1.8920    3.3410 c3        1 MOL      0.204333
     43 C14         0.8210    0.3560    3.0240 c         1 MOL      0.478812
     44 O6         -0.0260   -0.0420    2.1600 o         1 MOL     -0.535823
     45 C15         0.0360    2.3910    4.4190 c3        1 MOL     -0.054274
     46 C16        -1.4520    2.2810    4.0640 c         1 MOL      0.652491
     47 O7         -2.0120    3.3420    3.5750 o         1 MOL     -0.743087
     48 O8         -2.0800    1.1950    4.1060 o         1 MOL     -0.743087
     49 H21         0.0230    3.1290    1.9050 hn        1 MOL      0.230179
     50 H22         2.0140    2.0590    3.7570 h1        1 MOL      0.017903
     51 H23         0.2310    3.4120    4.7360 hc        1 MOL      0.028803
     52 H24         0.1030    1.8140    5.3300 hc        1 MOL      0.028803
     53 N5          1.3370   -0.6130    3.8440 n         1 MOL     -0.420428
     54 C17         2.4070   -0.3590    4.8250 c3        1 MOL     -0.118523
     55 C18         3.8030   -0.1450    4.1610 c         1 MOL      0.403981
     56 O9          4.2680    0.9920    3.9160 o         1 MOL     -0.466944
     57 H25         1.2810   -1.5890    3.5900 hn        1 MOL      0.311761
     58 H26         2.3750   -1.2110    5.4880 h1        1 MOL      0.103919
     59 H27         2.1630    0.5550    5.3610 h1        1 MOL      0.103919
     60 N6          4.4860   -1.2540    3.8080 n         1 MOL     -0.102276
     61 C19         5.8360   -1.2860    3.4010 c3        1 MOL     -0.271808
     62 C20         6.0740   -2.5010    2.4670 c         1 MOL      0.474736
     63 O10         5.3200   -3.4920    2.4850 o         1 MOL     -0.460498
     64 C21         6.8600   -1.3080    4.6000 c3        1 MOL     -0.081893
     65 C22         6.3980   -2.1390    5.7860 c         1 MOL      0.660772
     66 O11         5.9980   -1.5640    6.7880 o         1 MOL     -0.659827
     67 O12         6.3520   -3.3620    5.6900 o         1 MOL     -0.659827
     68 H28         4.0590   -2.1420    4.0620 hn        1 MOL      0.239787
     69 H29         5.9950   -0.3490    2.8630 h1        1 MOL      0.102044
     70 H30         7.0040   -0.2960    4.9670 hc        1 MOL      0.019777
     71 H31         7.8700   -1.5860    4.2840 hc        1 MOL      0.019777
     72 N7          7.2340   -2.4680    1.7680 n         1 MOL     -0.243225
     73 C23         7.7210   -3.3870    0.7810 c3        1 MOL     -0.165846
     74 C24         7.0790   -3.1920   -0.6400 c         1 MOL      0.572843
     75 O13         6.4450   -4.0820   -1.1540 o         1 MOL     -0.514093
     76 H32         7.7880   -1.6160    1.7980 hn        1 MOL      0.250723
     77 H33         7.4340   -4.4080    1.0520 h1        1 MOL      0.098259
     78 H34         8.8060   -3.2970    0.7950 h1        1 MOL      0.098259
     79 N8          7.2950   -1.9840   -1.1790 n         1 MOL     -0.490662
     80 C25         6.7800   -1.5070   -2.4950 c3        1 MOL      0.111865
     81 C26         5.5650   -0.6040   -2.3510 c         1 MOL      0.285185
     82 O14         5.4100    0.1290   -1.3740 o         1 MOL     -0.508267
     83 C27         7.8530   -0.7720   -3.3010 c3        1 MOL      0.345227
     84 C28         8.4160    0.5500   -2.7560 c3        1 MOL     -0.294512
     85 O15         8.9870   -1.6150   -3.3730 oh        1 MOL     -0.633789
     86 H35         7.6880   -1.2410   -0.6190 hn        1 MOL      0.285661
     87 H36         6.5230   -2.3850   -3.0910 h1        1 MOL      0.035579
     88 H37         7.4350   -0.5950   -4.2890 h1        1 MOL     -0.030706
     89 H38         8.8050   -2.4290   -3.8570 ho        1 MOL      0.400173
     90 H39         7.6200    1.2810   -2.6580 hc        1 MOL      0.087923
     91 H40         8.8680    0.4210   -1.7700 hc        1 MOL      0.087923
     92 H41         9.0800    1.0590   -3.4610 hc        1 MOL      0.087923
     93 N9          4.6900   -0.7330   -3.3780 n         1 MOL     -0.018528
     94 C29         3.4010   -0.0200   -3.4410 c3        1 MOL      0.027227
     95 C30         2.3900   -0.6480   -2.4450 c         1 MOL      0.535187
     96 O16         1.5790    0.1150   -1.9500 o         1 MOL     -0.524466
     97 C31         2.9270   -0.0330   -4.9380 c3        1 MOL      0.099705
     98 C32         3.9380    0.3440   -6.1060 c3        1 MOL     -0.275862
     99 C33         1.6110    0.7270   -5.1940 c3        1 MOL     -0.306787
    100 C34         4.6590    1.7150   -5.8250 c3        1 MOL      0.145962
    101 H42         4.9010   -1.4310   -4.0830 hn        1 MOL      0.161656
    102 H43         3.5580    1.0210   -3.1690 h1        1 MOL      0.012663
    103 H44         2.7380   -1.0960   -5.1060 hc        1 MOL     -0.000730
    104 H45         3.3400    0.5300   -7.0010 hc        1 MOL      0.081720
    105 H46         4.6610   -0.4540   -6.2130 hc        1 MOL      0.081720
    106 H47         0.9440    0.6350   -4.3330 hc        1 MOL      0.095051
    107 H48         1.6960    1.8040   -5.2900 hc        1 MOL      0.095051
    108 H49         1.1140    0.4750   -6.1280 hc        1 MOL      0.095051
    109 H50         5.2680    1.5850   -4.9360 hc        1 MOL     -0.034054
    110 H51         5.4010    1.9500   -6.5990 hc        1 MOL     -0.034054
    111 H52         4.0520    2.6020   -5.6680 hc        1 MOL     -0.034054
    112 N10         2.4590   -1.9240   -2.0990 n         1 MOL     -0.467832
    113 C35         1.6420   -2.6270   -1.0820 c3        1 MOL      0.103799
    114 C36         1.0250   -3.9220   -1.7820 c         1 MOL      0.554865
    115 O17         1.5640   -4.5190   -2.7520 o         1 MOL     -0.526230
    116 C37         2.4130   -2.9250    0.1870 c3        1 MOL      0.293747
    117 C38         3.0260   -1.6610    0.8350 c3        1 MOL     -0.071954
    118 O18         1.5130   -3.6020    1.0630 oh        1 MOL     -0.710630
    119 H53         3.2280   -2.4120   -2.5270 hn        1 MOL      0.190061
    120 H54         0.7740   -1.9850   -0.9460 h1        1 MOL      0.067440
    121 H55         3.2270   -3.6270    0.0720 h1        1 MOL      0.020893
    122 H56         1.9920   -3.8500    1.8540 ho        1 MOL      0.428049
    123 H57         2.2960   -0.8640    0.9290 hc        1 MOL      0.019372
    124 H58         3.4180   -2.0290    1.7830 hc        1 MOL      0.019372
    125 H59         3.9080   -1.3240    0.2900 hc        1 MOL      0.019372
    126 N11        -0.1540   -4.2520   -1.2530 n         1 MOL     -0.530370
    127 C39        -0.9300   -5.5030   -1.6100 c3        1 MOL      0.075514
    128 C40        -2.3460   -5.1430   -1.9040 c         1 MOL      0.620716
    129 O19        -2.8440   -5.4080   -3.0210 o         1 MOL     -0.567087
    130 C41        -0.7910   -6.5960   -0.5780 c3        1 MOL      0.272566
    131 C42        -1.5960   -7.8630   -0.7620 c3        1 MOL     -0.452406
    132 O20        -1.1380   -6.0320    0.6580 oh        1 MOL     -0.628428
    133 H60        -0.6150   -3.6790   -0.5620 hn        1 MOL      0.314197
    134 H61        -0.5670   -5.8570   -2.5790 h1        1 MOL      0.070594
    135 H62         0.2850   -6.7640   -0.5330 h1        1 MOL      0.047352
    136 H63        -0.4150   -6.3170    1.2200 ho        1 MOL      0.420240
    137 H64        -1.2020   -8.4610   -1.5850 hc        1 MOL      0.122472
    138 H65        -1.4960   -8.3660    0.1950 hc        1 MOL      0.122472
    139 H66        -2.6200   -7.6600   -1.0730 hc        1 MOL      0.122472
    140 N12        -3.0630   -4.4180   -1.0440 n         1 MOL     -0.518630
    141 C43        -4.4990   -4.0780   -1.1690 c3        1 MOL      0.125293
    142 C44        -4.8010   -2.6860   -0.6180 c         1 MOL      0.604297
    143 O21        -4.1570   -2.1950    0.3330 o         1 MOL     -0.579776
    144 C45        -5.3370   -5.2480   -0.5970 c3        1 MOL     -0.051472
    145 C46        -6.8410   -4.9860   -0.6620 c3        1 MOL     -0.032867
    146 C47        -7.6910   -6.2660   -0.3930 c3        1 MOL     -0.093005
    147 C48        -9.1200   -5.8850   -0.0380 c3        1 MOL      0.163512
    148 N13        -9.8900   -7.1000    0.3970 n4        1 MOL     -0.189264
    149 H67        -2.6750   -4.1920   -0.1330 hn        1 MOL      0.306504
    150 H68        -4.8280   -3.9740   -2.2020 h1        1 MOL      0.055249
    151 H69        -5.0520   -5.3560    0.4500 hc        1 MOL      0.052779
    152 H70        -5.1400   -6.1850   -1.1080 hc        1 MOL      0.052779
    153 H71        -7.1490   -4.6330   -1.6460 hc        1 MOL      0.034740
    154 H72        -7.0730   -4.2890    0.1480 hc        1 MOL      0.034740
    155 H73        -7.2690   -6.7960    0.4540 hc        1 MOL      0.042523
    156 H74        -7.7790   -6.8380   -1.3270 hc        1 MOL      0.042523
    157 H75        -9.6470   -5.4410   -0.8930 hx        1 MOL      0.039957
    158 H76        -9.1580   -5.0840    0.6960 hx        1 MOL      0.039957
    159 H77       -10.8910   -7.0690    0.2670 hn        1 MOL      0.214599
    160 H78        -9.6450   -7.8980   -0.1720 hn        1 MOL      0.214599
    161 H79        -9.8540   -7.3520    1.3750 hn        1 MOL      0.214599
    162 N14        -5.7630   -1.8970   -1.2140 n         1 MOL     -0.686274
    163 C49        -6.2110   -0.5020   -0.7630 c3        1 MOL      0.238890
    164 C50        -5.0930    0.6200   -0.9060 c         1 MOL      0.374273
    165 O22        -4.8770    1.3800    0.0550 o         1 MOL     -0.566612
    166 C51        -7.5350   -0.1390   -1.5500 c3        1 MOL     -0.056853
    167 C52        -8.4720    0.7550   -0.6820 c3        1 MOL     -0.344569
    168 C53        -9.9460    0.7160   -1.1490 c         1 MOL      0.679907
    169 O23       -10.6900    1.6580   -0.7860 o         1 MOL     -0.657604
    170 O24       -10.3980   -0.0820   -2.0120 o         1 MOL     -0.657604
    171 H80        -6.3030   -2.3150   -1.9570 hn        1 MOL      0.327527
    172 H81        -6.3590   -0.5810    0.3160 h1        1 MOL      0.041996
    173 H82        -8.0160   -1.0710   -1.8400 hc        1 MOL      0.049868
    174 H83        -7.2910    0.4330   -2.4460 hc        1 MOL      0.049868
    175 H84        -8.0170    1.7480   -0.6660 hc        1 MOL      0.101960
    176 H85        -8.3510    0.3860    0.3330 hc        1 MOL      0.101960
    177 N15        -4.3280    0.7610   -2.0240 n         1 MOL     -0.297090
    178 C54        -4.6840    0.4240   -3.4670 c3        1 MOL      0.128218
    179 H86        -5.6740   -0.0340   -3.4980 h1        1 MOL      0.021019
    180 H87        -4.6860    1.3350   -4.0640 h1        1 MOL      0.021019
    181 H88        -3.9500   -0.2730   -3.8700 h1        1 MOL      0.021019
    182 H89        -3.5380    1.3300   -1.7450 hn        1 MOL      0.270023
    183 Ca1        -3.9530    2.3510    2.2870 Ca        1 MOL      1.729066
    184 O25        -4.4820    4.8320    3.6250 oh        1 MOL     -0.799107
    185 H90        -3.6120    5.1060    3.8830 ho        1 MOL      0.400937
    186 H91        -4.9630    5.6480    3.4730 ho        1 MOL      0.400937
    187 O26        -5.8260    1.2580    3.9140 oh        1 MOL     -0.799107
    188 H92        -5.9050    1.2750    4.8690 ho        1 MOL      0.400937
    189 H93        -5.8060    0.3310    3.6930 ho        1 MOL      0.400937
    190 O27        -6.3850    3.3830    1.3290 oh        1 MOL     -0.799107
    191 H94        -7.2140    3.4650    1.8020 ho        1 MOL      0.400937
    192 H95        -6.4540    4.0240    0.6180 ho        1 MOL      0.400937
    193 O28        -1.8540    1.5150    0.8460 oh        1 MOL     -0.799107
    194 H96        -1.1690    0.9360    1.1770 ho        1 MOL      0.400937
    195 H97        -1.7300    1.5300   -0.1000 ho        1 MOL      0.400937
    196 O29        -3.7410   -0.4110    2.3870 oh        1 MOL     -0.799107
    197 H98        -3.1900   -0.8380    3.0320 ho        1 MOL      0.400937
    198 H99        -3.9190   -1.0850    1.7310 ho        1 MOL      0.400937
@<TRIPOS>BOND
     1    1    2 1   
     2    1    4 1   
     3    1    5 1   
     4    1    6 1   
     5    2    3 2   
     6    2    7 1   
     7    7    8 1   
     8    7   15 1   
     9    8    9 1   
    10    8   11 1   
    11    8   16 1   
    12    9   10 2   
    13    9   19 1   
    14   11   12 1   
    15   11   17 1   
    16   11   18 1   
    17   12   13 1   
    18   12   14 1   
    19   19   20 1   
    20   19   28 1   
    21   20   21 1   
    22   20   23 1   
    23   20   29 1   
    24   21   22 2   
    25   21   41 1   
    26   23   24 1   
    27   23   30 1   
    28   23   31 1   
    29   24   25 1   
    30   24   32 1   
    31   24   33 1   
    32   25   26 1   
    33   25   34 1   
    34   25   35 1   
    35   26   27 1   
    36   26   36 1   
    37   26   37 1   
    38   27   38 1   
    39   27   39 1   
    40   27   40 1   
    41   41   42 1   
    42   41   49 1   
    43   42   43 1   
    44   42   45 1   
    45   42   50 1   
    46   43   44 2   
    47   43   53 1   
    48   45   46 1   
    49   45   51 1   
    50   45   52 1   
    51   46   47 1   
    52   46   48 1   
    53   53   54 1   
    54   53   57 1   
    55   54   55 1   
    56   54   58 1   
    57   54   59 1   
    58   55   56 2   
    59   55   60 1   
    60   60   61 1   
    61   60   68 1   
    62   61   62 1   
    63   61   64 1   
    64   61   69 1   
    65   62   63 2   
    66   62   72 1   
    67   64   65 1   
    68   64   70 1   
    69   64   71 1   
    70   65   66 1   
    71   65   67 1   
    72   72   73 1   
    73   72   76 1   
    74   73   74 1   
    75   73   77 1   
    76   73   78 1   
    77   74   75 2   
    78   74   79 1   
    79   79   80 1   
    80   79   86 1   
    81   80   81 1   
    82   80   83 1   
    83   80   87 1   
    84   81   82 2   
    85   81   93 1   
    86   83   84 1   
    87   83   85 1   
    88   83   88 1   
    89   84   90 1   
    90   84   91 1   
    91   84   92 1   
    92   85   89 1   
    93   93   94 1   
    94   93  101 1   
    95   94   95 1   
    96   94   97 1   
    97   94  102 1   
    98   95   96 2   
    99   95  112 1   
   100   97   98 1   
   101   97   99 1   
   102   97  103 1   
   103   98  100 1   
   104   98  104 1   
   105   98  105 1   
   106   99  106 1   
   107   99  107 1   
   108   99  108 1   
   109  100  109 1   
   110  100  110 1   
   111  100  111 1   
   112  112  113 1   
   113  112  119 1   
   114  113  114 1   
   115  113  116 1   
   116  113  120 1   
   117  114  115 2   
   118  114  126 1   
   119  116  117 1   
   120  116  118 1   
   121  116  121 1   
   122  117  123 1   
   123  117  124 1   
   124  117  125 1   
   125  118  122 1   
   126  126  127 1   
   127  126  133 1   
   128  127  128 1   
   129  127  130 1   
   130  127  134 1   
   131  128  129 2   
   132  128  140 1   
   133  130  131 1   
   134  130  132 1   
   135  130  135 1   
   136  131  137 1   
   137  131  138 1   
   138  131  139 1   
   139  132  136 1   
   140  140  141 1   
   141  140  149 1   
   142  141  142 1   
   143  141  144 1   
   144  141  150 1   
   145  142  143 2   
   146  142  162 1   
   147  144  145 1   
   148  144  151 1   
   149  144  152 1   
   150  145  146 1   
   151  145  153 1   
   152  145  154 1   
   153  146  147 1   
   154  146  155 1   
   155  146  156 1   
   156  147  148 1   
   157  147  157 1   
   158  147  158 1   
   159  148  159 1   
   160  148  160 1   
   161  148  161 1   
   162  162  163 1   
   163  162  171 1   
   164  163  164 1   
   165  163  166 1   
   166  163  172 1   
   167  164  165 2   
   168  164  177 1   
   169  166  167 1   
   170  166  173 1   
   171  166  174 1   
   172  167  168 1   
   173  167  175 1   
   174  167  176 1   
   175  168  169 1   
   176  168  170 1   
   177  177  178 1   
   178  177  182 1   
   179  178  179 1   
   180  178  180 1   
   181  178  181 1   
   182  184  185 1   
   183  184  186 1   
   184  187  188 1   
   185  187  189 1   
   186  190  191 1   
   187  190  192 1   
   188  193  194 1   
   189  193  195 1   
   190  196  197 1   
   191  196  198 1   
@<TRIPOS>SUBSTRUCTURE
     1 MOL         1 TEMP              0 ****  ****    0 ROOT
