@<TRIPOS>MOLECULE
MOL
  178   175     1     0     0
SMALL
resp


@<TRIPOS>ATOM
      1 C1          1.8850    8.5770   -1.7190 c3        1 MOL     -0.339793
      2 C2          3.3380    8.2940   -1.2320 c         1 MOL      0.611283
      3 O1          3.7340    8.7870   -0.1260 o         1 MOL     -0.599854
      4 H1          1.9010    8.8190   -2.7820 hc        1 MOL      0.088969
      5 H2          1.2680    7.6930   -1.5570 hc        1 MOL      0.088969
      6 H3          1.4720    9.4170   -1.1620 hc        1 MOL      0.088969
      7 N1          4.1980    7.4910   -1.8430 n         1 MOL     -0.483646
      8 C3          5.5810    7.0920   -1.3180 c3        1 MOL      0.163317
      9 C4          5.5740    6.1420   -0.0920 c         1 MOL      0.453491
     10 O2          6.5800    6.0210    0.5540 o         1 MOL     -0.484759
     11 C5          6.3790    6.4370   -2.4820 c3        1 MOL     -0.369984
     12 C6          7.6950    5.8610   -1.9490 c         1 MOL      0.748215
     13 O3          7.8630    4.6230   -1.9170 o         1 MOL     -0.725265
     14 O4          8.5830    6.6830   -1.6340 o         1 MOL     -0.725265
     15 H4          3.9160    7.0390   -2.7020 hn        1 MOL      0.258811
     16 H5          6.0490    8.0410   -1.0810 h1        1 MOL      0.076870
     17 H6          6.5530    7.1730   -3.2650 hc        1 MOL      0.060263
     18 H7          5.7020    5.6220   -2.7450 hc        1 MOL      0.060263
     19 N2          4.4390    5.4630    0.1660 n         1 MOL     -0.459492
     20 C7          4.1210    4.5500    1.3600 c3        1 MOL      0.463539
     21 C8          3.2480    3.3900    0.8420 c         1 MOL      0.226446
     22 O5          2.4120    3.6550   -0.0190 o         1 MOL     -0.502099
     23 C9          3.3090    5.3100    2.3900 c3        1 MOL     -0.405319
     24 H8          3.6090    5.6830   -0.3590 hn        1 MOL      0.242199
     25 H9          5.0160    4.2490    1.8940 h1        1 MOL     -0.003916
     26 H10         3.3760    6.3790    2.1490 hc        1 MOL      0.112114
     27 H11         2.2480    5.0660    2.4530 hc        1 MOL      0.112114
     28 H12         3.7850    5.1520    3.3600 hc        1 MOL      0.112114
     29 N3          3.2660    2.1930    1.3760 n         1 MOL     -0.184589
     30 C10         4.0940    1.6450    2.4450 c3        1 MOL     -0.213451
     31 C11         4.4780    0.2180    2.1690 c         1 MOL      0.577773
     32 O6          3.7800   -0.5380    1.5190 o         1 MOL     -0.539567
     33 C12         3.2060    1.7750    3.7550 c3        1 MOL      0.025417
     34 C13         1.7440    1.4870    3.5810 c         1 MOL      0.648570
     35 O7          1.3110    0.7000    2.7040 o         1 MOL     -0.656133
     36 O8          0.9700    1.9350    4.4490 o         1 MOL     -0.656133
     37 H13         2.6580    1.5070    0.9720 hn        1 MOL      0.266907
     38 H14         5.0400    2.1860    2.5320 h1        1 MOL      0.095121
     39 H15         3.3010    2.7770    4.1760 hc        1 MOL     -0.032757
     40 H16         3.6790    1.1250    4.4910 hc        1 MOL     -0.032757
     41 N4          5.7110   -0.1480    2.6510 n         1 MOL     -0.434765
     42 C14         6.5670   -1.3170    2.4580 c3        1 MOL     -0.228607
     43 C15         6.9350   -1.4400    0.9370 c         1 MOL      0.624537
     44 O9          7.4040   -0.4520    0.3410 o         1 MOL     -0.525240
     45 H17         6.1440    0.5880    3.1730 hn        1 MOL      0.319949
     46 H18         6.1190   -2.2740    2.7160 h1        1 MOL      0.140681
     47 H19         7.5190   -1.1820    2.9960 h1        1 MOL      0.140681
     48 N5          6.8920   -2.5540    0.2710 n         1 MOL     -0.456463
     49 C16         6.0830   -3.8220    0.5540 c3        1 MOL     -0.308017
     50 C17         5.3060   -4.2850   -0.6780 c         1 MOL      0.686103
     51 O10         4.9760   -5.4840   -0.8260 o         1 MOL     -0.500359
     52 C18         7.0260   -4.9260    1.1580 c3        1 MOL     -0.130976
     53 C19         7.9350   -5.6150    0.1770 c         1 MOL      0.578767
     54 N6          7.9400   -6.8860    0.1570 n         1 MOL     -0.696559
     55 O11         8.4710   -4.9670   -0.7260 o         1 MOL     -0.518986
     56 H20         7.3310   -2.5940   -0.6360 hn        1 MOL      0.298663
     57 H21         5.3650   -3.5440    1.3320 h1        1 MOL      0.202919
     58 H22         6.4160   -5.6020    1.7560 hc        1 MOL      0.055330
     59 H23         7.6610   -4.5090    1.9460 hc        1 MOL      0.055330
     60 H24         7.5230   -7.4140    0.9080 hn        1 MOL      0.346102
     61 H25         8.4820   -7.4090   -0.5130 hn        1 MOL      0.346102
     62 N7          5.0580   -3.3060   -1.6180 n         1 MOL     -0.313753
     63 C20         4.6400   -3.5270   -3.0340 c3        1 MOL     -0.127629
     64 C21         3.3210   -4.2540   -3.2400 c         1 MOL      0.445465
     65 O12         3.1480   -5.1090   -4.1360 o         1 MOL     -0.555265
     66 H26         5.4870   -2.4080   -1.4730 hn        1 MOL      0.263354
     67 H27         5.4170   -4.1140   -3.5200 h1        1 MOL      0.109210
     68 H28         4.5470   -2.5090   -3.4250 h1        1 MOL      0.109210
     69 N8          2.3460   -4.0660   -2.3810 n         1 MOL     -0.086533
     70 C22         1.0180   -4.7040   -2.2650 c3        1 MOL     -0.374446
     71 C23        -0.0170   -3.6990   -1.6740 c         1 MOL      0.584323
     72 O13         0.3550   -2.7880   -0.8970 o         1 MOL     -0.506483
     73 C24         1.0320   -5.9980   -1.4670 c3        1 MOL      0.682691
     74 C25         1.5060   -7.2300   -2.1960 c3        1 MOL     -0.550514
     75 O14         1.8540   -5.8200   -0.3420 oh        1 MOL     -0.690888
     76 H29         2.4660   -3.2620   -1.7710 hn        1 MOL      0.096521
     77 H30         0.6950   -4.9930   -3.2620 h1        1 MOL      0.115437
     78 H31        -0.0120   -6.1920   -1.1870 h1        1 MOL     -0.024552
     79 H32         2.7430   -6.0410   -0.6360 ho        1 MOL      0.354041
     80 H33         2.5360   -7.1330   -2.5180 hc        1 MOL      0.135414
     81 H34         1.5190   -8.0300   -1.4570 hc        1 MOL      0.135414
     82 H35         0.7970   -7.4530   -2.9980 hc        1 MOL      0.135414
     83 N9         -1.2770   -3.8870   -2.0000 n         1 MOL     -0.302299
     84 C26        -2.4690   -3.1220   -1.6550 c3        1 MOL     -0.117207
     85 C27        -2.9120   -3.6200   -0.2640 c         1 MOL      0.502144
     86 O15        -3.2080   -4.8000   -0.1820 o         1 MOL     -0.568802
     87 C28        -3.6330   -3.2000   -2.6780 c3        1 MOL      0.121693
     88 C29        -4.8870   -2.3280   -2.2010 c3        1 MOL      0.077356
     89 C30        -3.0720   -2.6550   -4.0620 c3        1 MOL     -0.183667
     90 C31        -5.9890   -2.3040   -3.2100 c3        1 MOL     -0.181821
     91 H36        -1.5200   -4.5690   -2.6930 hn        1 MOL      0.247145
     92 H37        -2.1650   -2.0790   -1.5880 h1        1 MOL      0.030254
     93 H38        -3.9350   -4.2250   -2.8790 hc        1 MOL      0.017446
     94 H39        -4.5940   -1.3120   -1.9550 hc        1 MOL     -0.014143
     95 H40        -5.2880   -2.6840   -1.2570 hc        1 MOL     -0.014143
     96 H41        -2.3910   -1.8160   -3.9660 hc        1 MOL      0.038083
     97 H42        -2.3930   -3.4460   -4.3850 hc        1 MOL      0.038083
     98 H43        -3.8310   -2.4730   -4.8200 hc        1 MOL      0.038083
     99 H44        -6.0230   -3.2610   -3.7170 hc        1 MOL      0.035911
    100 H45        -6.9470   -2.2650   -2.6910 hc        1 MOL      0.035911
    101 H46        -5.8790   -1.4370   -3.8550 hc        1 MOL      0.035911
    102 N10        -3.0300   -2.6160    0.6140 n         1 MOL     -0.399561
    103 C32        -3.6940   -2.9650    1.9040 c3        1 MOL      0.160389
    104 C33        -5.0660   -2.2040    2.0610 c         1 MOL      0.381630
    105 O16        -5.7990   -2.4260    2.9810 o         1 MOL     -0.527877
    106 C34        -2.7710   -2.7690    3.1390 c3        1 MOL     -0.222633
    107 C35        -1.2210   -2.4410    2.8390 c         1 MOL      0.779713
    108 O17        -0.7370   -1.3940    3.2170 o         1 MOL     -0.745164
    109 O18        -0.5540   -3.3110    2.2790 o         1 MOL     -0.745164
    110 H47        -2.6670   -1.6880    0.4570 hn        1 MOL      0.279164
    111 H48        -4.0360   -3.9970    1.8750 h1        1 MOL      0.072895
    112 H49        -2.9210   -3.6330    3.7930 hc        1 MOL      0.042325
    113 H50        -3.2450   -1.9360    3.6490 hc        1 MOL      0.042325
    114 N11        -5.4040   -1.3730    1.0410 n         1 MOL     -0.249363
    115 C36        -6.6530   -0.5330    1.0660 c3        1 MOL      0.045670
    116 C37        -6.5100    0.9160    0.5900 c         1 MOL      0.335721
    117 O19        -6.7300    1.2310   -0.5860 o         1 MOL     -0.465807
    118 C38        -7.6800   -1.3690    0.3160 c3        1 MOL     -0.130747
    119 C39        -9.0820   -0.8380    0.4500 ca        1 MOL      0.067534
    120 C40        -9.7300   -0.6130    1.6860 ca        1 MOL     -0.203729
    121 C41        -9.7070   -0.3360   -0.7260 ca        1 MOL     -0.203729
    122 C42       -11.0010    0.0490    1.7230 ca        1 MOL     -0.032155
    123 C43       -10.9550    0.3590   -0.5950 ca        1 MOL     -0.032155
    124 C44       -11.6360    0.3710    0.5940 ca        1 MOL     -0.191775
    125 H51        -4.6560   -1.1020    0.4230 hn        1 MOL      0.294996
    126 H52        -7.0300   -0.4890    2.0780 h1        1 MOL      0.050082
    127 H53        -7.6410   -2.3870    0.7150 hc        1 MOL      0.080815
    128 H54        -7.4730   -1.2950   -0.7520 hc        1 MOL      0.080815
    129 H55        -9.2970   -0.9760    2.6040 ha        1 MOL      0.130985
    130 H56        -9.3400   -0.5300   -1.7200 ha        1 MOL      0.130985
    131 H57       -11.5910    0.1150    2.6190 ha        1 MOL      0.075242
    132 H58       -11.4610    0.6660   -1.5060 ha        1 MOL      0.075242
    133 H59       -12.5920    0.8800    0.6550 ha        1 MOL      0.105428
    134 N12        -5.9540    1.7890    1.4500 n         1 MOL      0.003260
    135 C45        -5.8050    3.2110    1.2620 c3        1 MOL     -0.023048
    136 C46        -5.0530    3.6460   -0.0770 c         1 MOL      0.293925
    137 O20        -5.1440    4.7810   -0.4480 o         1 MOL     -0.467752
    138 C47        -5.1660    3.8150    2.5370 c3        1 MOL     -0.201979
    139 C48        -5.4010    2.7350    3.5900 c3        1 MOL      0.091415
    140 C49        -5.6200    1.4420    2.8470 c3        1 MOL     -0.032032
    141 H60        -6.8440    3.5500    1.2520 h1        1 MOL      0.061541
    142 H61        -4.0810    3.9080    2.4640 hc        1 MOL      0.105432
    143 H62        -5.6090    4.7810    2.7680 hc        1 MOL      0.105432
    144 H63        -4.5710    2.7970    4.2890 hc        1 MOL     -0.005243
    145 H64        -6.2780    2.9190    4.2010 hc        1 MOL     -0.005243
    146 H65        -4.7460    0.7890    2.8170 h1        1 MOL      0.054946
    147 H66        -6.4140    0.8780    3.3270 h1        1 MOL      0.054946
    148 N13        -4.2230    2.8080   -0.7710 n         1 MOL     -0.065442
    149 C50        -3.5370    3.0360   -2.0130 c3        1 MOL     -0.316767
    150 C51        -4.5700    3.6110   -3.0250 c         1 MOL      0.552559
    151 O21        -4.2120    4.4970   -3.7750 o         1 MOL     -0.555662
    152 C52        -2.9920    1.6460   -2.6160 c3        1 MOL      0.143419
    153 C53        -1.7350    1.0190   -2.0740 c3        1 MOL     -0.151459
    154 C54        -1.8360    0.3300   -0.7020 c         1 MOL      1.057163
    155 O22        -0.7970   -0.0370   -0.1100 o         1 MOL     -0.858880
    156 O23        -2.9660    0.1010   -0.2270 o         1 MOL     -0.858880
    157 H67        -4.1120    1.8630   -0.4280 hn        1 MOL      0.149591
    158 H68        -2.7360    3.7280   -1.7890 h1        1 MOL      0.178291
    159 H69        -2.8100    1.9680   -3.6420 hc        1 MOL     -0.018311
    160 H70        -3.8410    0.9730   -2.7450 hc        1 MOL     -0.018311
    161 H71        -1.0860    1.8840   -1.9060 hc        1 MOL      0.017562
    162 H72        -1.4100    0.3090   -2.8350 hc        1 MOL      0.017562
    163 N14        -5.8350    3.3450   -2.8280 n         1 MOL     -0.241260
    164 C55        -6.9500    3.9590   -3.5810 c3        1 MOL     -0.161822
    165 H73        -6.6440    4.1220   -4.6140 h1        1 MOL      0.078551
    166 H74        -7.8130    3.2950   -3.5590 h1        1 MOL      0.078551
    167 H75        -7.2130    4.9130   -3.1260 h1        1 MOL      0.078551
    168 H76        -6.0550    2.7940   -2.0070 hn        1 MOL      0.206848
    169 Ca1         1.0460   -1.3410    1.2570 Ca        1 MOL      1.738146
    170 O24         2.5060   -2.5050    3.5330 oh        1 MOL     -0.919986
    171 H77         3.2350   -2.1790    4.0490 ho        1 MOL      0.442957
    172 H78         1.7920   -2.6180    4.1590 ho        1 MOL      0.442957
    173 O25         1.9720   -0.0720   -0.8330 oh        1 MOL     -0.919986
    174 H79         2.8840   -0.2780   -1.0460 ho        1 MOL      0.442957
    175 H80         1.5610    0.1160   -1.6800 ho        1 MOL      0.442957
    176 O26         2.5450   -3.5820    0.9300 oh        1 MOL     -0.919986
    177 H81         2.3080   -4.4980    0.7480 ho        1 MOL      0.442957
    178 H82         2.7030   -3.5580    1.8720 ho        1 MOL      0.442957
@<TRIPOS>BOND
     1    1    2 1   
     2    1    4 1   
     3    1    5 1   
     4    1    6 1   
     5    2    3 2   
     6    2    7 1   
     7    7    8 1   
     8    7   15 1   
     9    8    9 1   
    10    8   11 1   
    11    8   16 1   
    12    9   10 2   
    13    9   19 1   
    14   11   12 1   
    15   11   17 1   
    16   11   18 1   
    17   12   13 1   
    18   12   14 1   
    19   19   20 1   
    20   19   24 1   
    21   20   21 1   
    22   20   23 1   
    23   20   25 1   
    24   21   22 2   
    25   21   29 1   
    26   23   26 1   
    27   23   27 1   
    28   23   28 1   
    29   29   30 1   
    30   29   37 1   
    31   30   31 1   
    32   30   33 1   
    33   30   38 1   
    34   31   32 2   
    35   31   41 1   
    36   33   34 1   
    37   33   39 1   
    38   33   40 1   
    39   34   35 1   
    40   34   36 1   
    41   41   42 1   
    42   41   45 1   
    43   42   43 1   
    44   42   46 1   
    45   42   47 1   
    46   43   44 2   
    47   43   48 1   
    48   48   49 1   
    49   48   56 1   
    50   49   50 1   
    51   49   52 1   
    52   49   57 1   
    53   50   51 2   
    54   50   62 1   
    55   52   53 1   
    56   52   58 1   
    57   52   59 1   
    58   53   54 1   
    59   53   55 2   
    60   54   60 1   
    61   54   61 1   
    62   62   63 1   
    63   62   66 1   
    64   63   64 1   
    65   63   67 1   
    66   63   68 1   
    67   64   65 2   
    68   64   69 1   
    69   69   70 1   
    70   69   76 1   
    71   70   71 1   
    72   70   73 1   
    73   70   77 1   
    74   71   72 2   
    75   71   83 1   
    76   73   74 1   
    77   73   75 1   
    78   73   78 1   
    79   74   80 1   
    80   74   81 1   
    81   74   82 1   
    82   75   79 1   
    83   83   84 1   
    84   83   91 1   
    85   84   85 1   
    86   84   87 1   
    87   84   92 1   
    88   85   86 2   
    89   85  102 1   
    90   87   88 1   
    91   87   89 1   
    92   87   93 1   
    93   88   90 1   
    94   88   94 1   
    95   88   95 1   
    96   89   96 1   
    97   89   97 1   
    98   89   98 1   
    99   90   99 1   
   100   90  100 1   
   101   90  101 1   
   102  102  103 1   
   103  102  110 1   
   104  103  104 1   
   105  103  106 1   
   106  103  111 1   
   107  104  105 2   
   108  104  114 1   
   109  106  107 1   
   110  106  112 1   
   111  106  113 1   
   112  107  108 1   
   113  107  109 1   
   114  114  115 1   
   115  114  125 1   
   116  115  116 1   
   117  115  118 1   
   118  115  126 1   
   119  116  117 2   
   120  116  134 1   
   121  118  119 1   
   122  118  127 1   
   123  118  128 1   
   124  119  120 ar  
   125  119  121 ar  
   126  120  122 ar  
   127  120  129 1   
   128  121  123 ar  
   129  121  130 1   
   130  122  124 ar  
   131  122  131 1   
   132  123  124 ar  
   133  123  132 1   
   134  124  133 1   
   135  134  135 1   
   136  134  140 1   
   137  135  136 1   
   138  135  138 1   
   139  135  141 1   
   140  136  137 2   
   141  136  148 1   
   142  138  139 1   
   143  138  142 1   
   144  138  143 1   
   145  139  140 1   
   146  139  144 1   
   147  139  145 1   
   148  140  146 1   
   149  140  147 1   
   150  148  149 1   
   151  148  157 1   
   152  149  150 1   
   153  149  152 1   
   154  149  158 1   
   155  150  151 2   
   156  150  163 1   
   157  152  153 1   
   158  152  159 1   
   159  152  160 1   
   160  153  154 1   
   161  153  161 1   
   162  153  162 1   
   163  154  155 1   
   164  154  156 1   
   165  163  164 1   
   166  163  168 1   
   167  164  165 1   
   168  164  166 1   
   169  164  167 1   
   170  170  171 1   
   171  170  172 1   
   172  173  174 1   
   173  173  175 1   
   174  176  177 1   
   175  176  178 1   
@<TRIPOS>SUBSTRUCTURE
     1 MOL         1 TEMP              0 ****  ****    0 ROOT
