@<TRIPOS>MOLECULE
MOL
  182   178     1     0     0
SMALL
resp


@<TRIPOS>ATOM
      1 C1          0.6780   -3.7200    6.3390 c3        1 MOL     -0.373440
      2 C2          0.7460   -3.5010    4.8630 c         1 MOL      0.824645
      3 O1         -0.2210   -3.3630    4.1450 o         1 MOL     -0.650646
      4 H1         -0.3660   -3.7610    6.6510 hc        1 MOL      0.104805
      5 H2          1.1690   -4.6590    6.5900 hc        1 MOL      0.104805
      6 H3          1.1770   -2.8980    6.8520 hc        1 MOL      0.104805
      7 N1          1.9170   -3.5450    4.3070 n         1 MOL     -0.619799
      8 C3          2.1620   -3.1700    2.9200 c3        1 MOL      0.036948
      9 C4          2.3610   -4.4440    2.0580 c         1 MOL      0.551696
     10 O2          2.7640   -5.5160    2.5200 o         1 MOL     -0.537059
     11 C5          3.4450   -2.2440    2.8720 c3        1 MOL     -0.058915
     12 C6          3.6200   -1.4030    1.5440 c         1 MOL      0.523511
     13 O3          4.2760   -0.3390    1.4990 o         1 MOL     -0.654217
     14 O4          3.0540   -1.8080    0.4850 o         1 MOL     -0.654217
     15 H4          2.7960   -3.6080    4.7980 hn        1 MOL      0.319659
     16 H5          1.3100   -2.6220    2.5180 h1        1 MOL      0.177221
     17 H6          4.3480   -2.8300    3.0490 hc        1 MOL      0.031008
     18 H7          3.3420   -1.4740    3.6430 hc        1 MOL      0.031008
     19 N2          2.0190   -4.3040    0.7410 n         1 MOL     -0.239281
     20 C7          1.7860   -5.3050   -0.2480 c3        1 MOL      0.040911
     21 C8          2.8170   -5.2150   -1.3160 c         1 MOL      0.463764
     22 O5          2.9670   -6.2210   -2.0310 o         1 MOL     -0.591145
     23 C9          0.4060   -5.2420   -0.8530 c3        1 MOL      0.049644
     24 C10        -0.1220   -6.4740   -1.7040 c3        1 MOL     -0.104551
     25 C11        -1.5590   -6.4380   -2.0820 c3        1 MOL      0.041152
     26 C12        -1.9720   -7.6700   -2.9940 c3        1 MOL      0.057591
     27 N3         -3.3820   -7.9310   -3.0990 n4        1 MOL     -0.133523
     28 H8          1.8140   -3.3650    0.4190 hn        1 MOL      0.016544
     29 H9          1.9180   -6.2610    0.2690 h1        1 MOL      0.081201
     30 H10         0.3540   -4.3200   -1.4240 hc        1 MOL      0.013608
     31 H11        -0.2430   -5.1070    0.0220 hc        1 MOL      0.013608
     32 H12        -0.0030   -7.3930   -1.1270 hc        1 MOL      0.048211
     33 H13         0.5320   -6.5360   -2.5700 hc        1 MOL      0.048211
     34 H14        -1.9310   -5.5630   -2.6030 hc        1 MOL      0.009258
     35 H15        -2.2140   -6.4860   -1.2070 hc        1 MOL      0.009258
     36 H16        -1.5310   -8.5810   -2.5940 hx        1 MOL      0.052793
     37 H17        -1.5280   -7.5340   -3.9750 hx        1 MOL      0.052793
     38 H18        -3.9150   -8.0360   -2.2440 hn        1 MOL      0.225054
     39 H19        -3.7780   -7.1010   -3.5270 hn        1 MOL      0.225054
     40 H20        -3.5980   -8.6420   -3.7820 hn        1 MOL      0.225054
     41 N4          3.5780   -4.1360   -1.3790 n         1 MOL     -0.000039
     42 C13         4.8240   -4.0140   -2.1920 c3        1 MOL      0.065889
     43 C14         5.9840   -3.6400   -1.2920 c         1 MOL      0.411445
     44 O6          7.0980   -4.0770   -1.5930 o         1 MOL     -0.510316
     45 C15         4.5870   -2.9640   -3.3320 c3        1 MOL     -0.286699
     46 C16         4.1220   -1.6150   -2.8710 c         1 MOL      0.808837
     47 O7          3.0130   -1.1690   -3.0280 o         1 MOL     -0.749768
     48 O8          4.8320   -1.0370   -2.0050 o         1 MOL     -0.749768
     49 H21         3.4300   -3.4110   -0.6810 hn        1 MOL     -0.231413
     50 H22         4.9440   -4.9470   -2.7160 h1        1 MOL      0.102511
     51 H23         3.8180   -3.3710   -4.0000 hc        1 MOL      0.081744
     52 H24         5.5300   -2.9510   -3.8860 hc        1 MOL      0.081744
     53 N5          5.7380   -3.0360   -0.0990 n         1 MOL     -0.201880
     54 C17         6.7340   -2.6960    0.9120 c3        1 MOL     -0.232131
     55 C18         7.4040   -1.2890    0.7620 c         1 MOL      0.581616
     56 O9          8.3340   -1.0080    1.5290 o         1 MOL     -0.561090
     57 H25         4.8460   -2.5720   -0.0940 hn        1 MOL      0.310128
     58 H26         7.5060   -3.4530    1.0630 h1        1 MOL      0.135264
     59 H27         6.2020   -2.5160    1.8420 h1        1 MOL      0.135264
     60 N6          7.0310   -0.4270   -0.2450 n         1 MOL     -0.309079
     61 C19         7.5540    0.9520   -0.4270 c3        1 MOL      0.054155
     62 C20         6.3870    1.9440   -0.3820 c         1 MOL      0.445543
     63 O10         5.2160    1.6260   -0.7670 o         1 MOL     -0.404422
     64 C21         8.4530    1.0040   -1.7120 c3        1 MOL     -0.208317
     65 C22         7.7440    1.5020   -2.9630 c         1 MOL      0.571631
     66 N7          6.8850    0.7800   -3.5370 n         1 MOL     -0.613651
     67 O11         8.1100    2.5410   -3.5550 o         1 MOL     -0.598668
     68 H28         6.2350   -0.7080   -0.7930 hn        1 MOL      0.187956
     69 H29         8.1160    1.2200    0.4610 h1        1 MOL      0.065992
     70 H30         8.9360    0.0420   -1.8580 hc        1 MOL      0.092845
     71 H31         9.2190    1.7470   -1.5100 hc        1 MOL      0.092845
     72 H32         6.5250   -0.1140   -3.2480 hn        1 MOL      0.312709
     73 H33         6.4630    1.1690   -4.3710 hn        1 MOL      0.312709
     74 N8          6.7040    3.1840   -0.1280 n         1 MOL     -0.366401
     75 C23         5.8390    4.4450   -0.0830 c3        1 MOL     -0.225991
     76 C24         4.6190    4.4590    0.7800 c         1 MOL      0.620137
     77 O12         4.5620    4.2690    1.9840 o         1 MOL     -0.505715
     78 H34         7.6590    3.3340    0.1330 hn        1 MOL      0.311614
     79 H35         5.6150    4.7270   -1.1180 h1        1 MOL      0.129590
     80 H36         6.4780    5.2240    0.3280 h1        1 MOL      0.129590
     81 N9          3.4940    4.7120    0.1280 n         1 MOL     -0.616625
     82 C25         2.1010    4.6920    0.6760 c3        1 MOL      0.300507
     83 C26         1.7760    3.2540    1.1010 c         1 MOL      0.574802
     84 O13         2.5560    2.3590    0.8040 o         1 MOL     -0.552853
     85 C27         1.0510    5.3010   -0.2560 c3        1 MOL     -0.243839
     86 C28         1.1700    6.7920   -0.5540 ca        1 MOL      0.124145
     87 C29         0.9270    7.6560    0.4780 ca        1 MOL     -0.180084
     88 C30         1.4600    7.2780   -1.8640 ca        1 MOL     -0.180084
     89 C31         0.9440    9.0270    0.2650 ca        1 MOL     -0.288960
     90 C32         1.4570    8.6770   -2.0630 ca        1 MOL     -0.288960
     91 C33         1.2040    9.5390   -1.0100 ca        1 MOL      0.390647
     92 O14         1.2160   10.7860   -1.2140 oh        1 MOL     -0.426199
     93 H37         3.6090    5.0300   -0.8190 hn        1 MOL      0.282914
     94 H38         2.1950    5.2640    1.6060 h1        1 MOL      0.065577
     95 H39         0.0430    5.0570    0.0970 hc        1 MOL      0.061202
     96 H40         1.1760    4.7850   -1.2080 hc        1 MOL      0.061202
     97 H41         0.5900    7.2910    1.4410 ha        1 MOL      0.135999
     98 H42         1.5510    6.6160   -2.7120 ha        1 MOL      0.135999
     99 H43         0.7980    9.7090    1.0810 ha        1 MOL      0.162220
    100 H44         1.4550    9.1890   -3.0190 ha        1 MOL      0.162220
    101 H45         1.4580   10.9460   -2.1260 ho        1 MOL      0.342322
    102 N10         0.6590    3.0800    1.8990 n         1 MOL     -0.803120
    103 C34         0.2290    1.9130    2.6170 c3        1 MOL      0.444380
    104 C35        -0.0380    0.6460    1.6870 c         1 MOL      0.148254
    105 O15         0.8680    0.0600    1.1610 o         1 MOL     -0.146895
    106 C36         1.3530    1.5220    3.6890 c3        1 MOL      0.142883
    107 C37         1.1240    0.1730    4.4070 c3        1 MOL     -0.231864
    108 C38         1.3940    2.6800    4.6960 c3        1 MOL     -0.279897
    109 C39        -0.2310   -0.0050    5.2340 c3        1 MOL     -0.076275
    110 H46         0.2430    3.9520    2.1710 hn        1 MOL      0.326951
    111 H47        -0.6690    2.1460    3.1860 h1        1 MOL      0.009949
    112 H48         2.3110    1.4450    3.1830 hc        1 MOL      0.054370
    113 H49         1.9170    0.1310    5.1520 hc        1 MOL      0.076818
    114 H50         1.1880   -0.6610    3.7080 hc        1 MOL      0.076818
    115 H51         0.4660    2.7090    5.2630 hc        1 MOL      0.069137
    116 H52         2.1410    2.4450    5.4480 hc        1 MOL      0.069137
    117 H53         1.7030    3.6030    4.2040 hc        1 MOL      0.069137
    118 H54        -1.0840    0.4310    4.7120 hc        1 MOL      0.018685
    119 H55        -0.4050   -1.0770    5.3200 hc        1 MOL      0.018685
    120 H56        -0.2230    0.4250    6.2290 hc        1 MOL      0.018685
    121 N11        -1.3090    0.3730    1.3480 n         1 MOL     -0.247267
    122 C40        -1.6220   -0.7700    0.4160 c3        1 MOL     -0.355828
    123 C41        -3.1480   -0.7800   -0.0330 c         1 MOL      0.796306
    124 O16        -3.4200   -1.3530   -1.0500 o         1 MOL     -0.592369
    125 C42        -1.2640   -2.0810    1.0740 c3        1 MOL      0.373163
    126 O17        -1.9520   -2.2310    2.3250 oh        1 MOL     -0.673357
    127 H57        -1.9810    1.0680    1.6320 hn        1 MOL      0.203276
    128 H58        -1.0690   -0.6250   -0.5190 h1        1 MOL      0.125756
    129 H59        -0.2080   -2.3310    1.0820 h1        1 MOL     -0.023094
    130 H60        -1.6470   -2.9280    0.5040 h1        1 MOL     -0.023094
    131 H61        -1.4630   -2.8760    2.8380 ho        1 MOL      0.439557
    132 N12        -4.0790   -0.2040    0.6740 n         1 MOL     -0.659263
    133 C43        -5.4740   -0.0040    0.1800 c3        1 MOL      0.190944
    134 C44        -5.6320    0.8250   -1.1680 c         1 MOL      0.646600
    135 O18        -4.7620    1.5160   -1.5790 o         1 MOL     -0.561993
    136 C45        -6.2090    0.6340    1.3720 c3        1 MOL     -0.226465
    137 H62        -3.7730    0.3770    1.4330 hn        1 MOL      0.358081
    138 H63        -5.9210   -0.9970    0.0870 h1        1 MOL      0.104084
    139 H64        -6.1060    1.6940    1.1640 hc        1 MOL      0.066792
    140 H65        -7.2170    0.2270    1.4080 hc        1 MOL      0.066792
    141 H66        -5.6400    0.4910    2.2930 hc        1 MOL      0.066792
    142 N13        -6.7400    0.6380   -1.9240 n         1 MOL     -0.693375
    143 C46        -7.9590   -0.1510   -1.5730 c3        1 MOL      0.283260
    144 C47        -9.1440    0.5330   -2.2030 c         1 MOL      0.564561
    145 O19        -9.0170    1.0130   -3.3090 o         1 MOL     -0.577586
    146 C48        -7.6560   -1.5000   -2.1650 c3        1 MOL     -0.304203
    147 H67        -6.6510    0.9710   -2.8730 hn        1 MOL      0.371215
    148 H68        -8.1040   -0.2600   -0.4970 h1        1 MOL      0.010786
    149 H69        -7.4730   -1.3270   -3.2250 hc        1 MOL      0.079589
    150 H70        -6.8100   -1.9170   -1.6130 hc        1 MOL      0.079589
    151 H71        -8.5720   -2.0830   -2.0640 hc        1 MOL      0.079589
    152 N14       -10.2530    0.9110   -1.5730 n         1 MOL     -0.515822
    153 C49       -10.5220    0.5830   -0.1250 c3        1 MOL     -0.132283
    154 C50       -10.0410    1.6280    0.9040 c         1 MOL      0.461824
    155 O20        -9.7480    1.2900    2.0400 o         1 MOL     -0.518689
    156 C51       -12.0390    0.4340    0.0730 c3        1 MOL      0.053575
    157 C52       -12.7050   -0.5580   -0.8370 c3        1 MOL     -0.045959
    158 C53       -14.1920   -0.8670   -0.4830 c         1 MOL      0.646991
    159 O21       -14.4630   -2.0300   -0.1140 o         1 MOL     -0.651615
    160 O22       -14.9790    0.0960   -0.5900 o         1 MOL     -0.651615
    161 H72       -10.9080    1.4510   -2.1250 hn        1 MOL      0.355259
    162 H73       -10.0630   -0.3440    0.2250 h1        1 MOL      0.133255
    163 H74       -12.5670    1.3850   -0.0080 hc        1 MOL      0.019706
    164 H75       -12.1340   -0.0270    1.0610 hc        1 MOL      0.019706
    165 H76       -12.1130   -1.4700   -0.8800 hc        1 MOL     -0.021393
    166 H77       -12.7710   -0.2330   -1.8770 hc        1 MOL     -0.021393
    167 N15        -9.7970    2.8620    0.4850 n         1 MOL     -0.259435
    168 C54        -9.1460    3.8260    1.2760 c3        1 MOL     -0.259394
    169 H78        -9.6620    3.9210    2.2310 h1        1 MOL      0.111409
    170 H79        -8.1140    3.5190    1.4500 h1        1 MOL      0.111409
    171 H80        -9.1570    4.7870    0.7600 h1        1 MOL      0.111409
    172 H81        -9.8190    3.0160   -0.5110 hn        1 MOL      0.259092
    173 Ca1         2.9500    0.3920   -0.8810 Ca        1 MOL      1.700107
    174 O23         3.6060    2.1330   -3.0580 oh        1 MOL     -0.858602
    175 H82         3.5850    1.7720   -3.9470 ho        1 MOL      0.419899
    176 H83         3.6310    3.0880   -3.1910 ho        1 MOL      0.419899
    177 O24         0.9350   -1.7860   -1.5310 oh        1 MOL     -0.858602
    178 H84         1.5570   -1.5770   -2.2340 ho        1 MOL      0.419899
    179 H85         0.1500   -2.0790   -1.9940 ho        1 MOL      0.419899
    180 O25         0.8500    1.7000   -1.8980 oh        1 MOL     -0.858602
    181 H86         0.9560    2.4350   -2.5090 ho        1 MOL      0.419899
    182 H87        -0.0900    1.6740   -1.7260 ho        1 MOL      0.419899
@<TRIPOS>BOND
     1    1    2 1   
     2    1    4 1   
     3    1    5 1   
     4    1    6 1   
     5    2    3 2   
     6    2    7 1   
     7    7    8 1   
     8    7   15 1   
     9    8    9 1   
    10    8   11 1   
    11    8   16 1   
    12    9   10 2   
    13    9   19 1   
    14   11   12 1   
    15   11   17 1   
    16   11   18 1   
    17   12   13 1   
    18   12   14 1   
    19   19   20 1   
    20   19   28 1   
    21   20   21 1   
    22   20   23 1   
    23   20   29 1   
    24   21   22 2   
    25   21   41 1   
    26   23   24 1   
    27   23   30 1   
    28   23   31 1   
    29   24   25 1   
    30   24   32 1   
    31   24   33 1   
    32   25   26 1   
    33   25   34 1   
    34   25   35 1   
    35   26   27 1   
    36   26   36 1   
    37   26   37 1   
    38   27   38 1   
    39   27   39 1   
    40   27   40 1   
    41   41   42 1   
    42   41   49 1   
    43   42   43 1   
    44   42   45 1   
    45   42   50 1   
    46   43   44 2   
    47   43   53 1   
    48   45   46 1   
    49   45   51 1   
    50   45   52 1   
    51   46   47 1   
    52   46   48 1   
    53   53   54 1   
    54   53   57 1   
    55   54   55 1   
    56   54   58 1   
    57   54   59 1   
    58   55   56 2   
    59   55   60 1   
    60   60   61 1   
    61   60   68 1   
    62   61   62 1   
    63   61   64 1   
    64   61   69 1   
    65   62   63 2   
    66   62   74 1   
    67   64   65 1   
    68   64   70 1   
    69   64   71 1   
    70   65   66 1   
    71   65   67 2   
    72   66   72 1   
    73   66   73 1   
    74   74   75 1   
    75   74   78 1   
    76   75   76 1   
    77   75   79 1   
    78   75   80 1   
    79   76   77 2   
    80   76   81 1   
    81   81   82 1   
    82   81   93 1   
    83   82   83 1   
    84   82   85 1   
    85   82   94 1   
    86   83   84 2   
    87   83  102 1   
    88   85   86 1   
    89   85   95 1   
    90   85   96 1   
    91   86   87 ar  
    92   86   88 ar  
    93   87   89 ar  
    94   87   97 1   
    95   88   90 ar  
    96   88   98 1   
    97   89   91 ar  
    98   89   99 1   
    99   90   91 ar  
   100   90  100 1   
   101   91   92 1   
   102   92  101 1   
   103  102  103 1   
   104  102  110 1   
   105  103  104 1   
   106  103  106 1   
   107  103  111 1   
   108  104  105 2   
   109  104  121 1   
   110  106  107 1   
   111  106  108 1   
   112  106  112 1   
   113  107  109 1   
   114  107  113 1   
   115  107  114 1   
   116  108  115 1   
   117  108  116 1   
   118  108  117 1   
   119  109  118 1   
   120  109  119 1   
   121  109  120 1   
   122  121  122 1   
   123  121  127 1   
   124  122  123 1   
   125  122  125 1   
   126  122  128 1   
   127  123  124 2   
   128  123  132 1   
   129  125  126 1   
   130  125  129 1   
   131  125  130 1   
   132  126  131 1   
   133  132  133 1   
   134  132  137 1   
   135  133  134 1   
   136  133  136 1   
   137  133  138 1   
   138  134  135 2   
   139  134  142 1   
   140  136  139 1   
   141  136  140 1   
   142  136  141 1   
   143  142  143 1   
   144  142  147 1   
   145  143  144 1   
   146  143  146 1   
   147  143  148 1   
   148  144  145 2   
   149  144  152 1   
   150  146  149 1   
   151  146  150 1   
   152  146  151 1   
   153  152  153 1   
   154  152  161 1   
   155  153  154 1   
   156  153  156 1   
   157  153  162 1   
   158  154  155 2   
   159  154  167 1   
   160  156  157 1   
   161  156  163 1   
   162  156  164 1   
   163  157  158 1   
   164  157  165 1   
   165  157  166 1   
   166  158  159 1   
   167  158  160 1   
   168  167  168 1   
   169  167  172 1   
   170  168  169 1   
   171  168  170 1   
   172  168  171 1   
   173  174  175 1   
   174  174  176 1   
   175  177  178 1   
   176  177  179 1   
   177  180  181 1   
   178  180  182 1   
@<TRIPOS>SUBSTRUCTURE
     1 MOL         1 TEMP              0 ****  ****    0 ROOT
