@<TRIPOS>MOLECULE
MOL
  189   185     1     0     0
SMALL
resp


@<TRIPOS>ATOM
      1 C1          0.9280    8.2670   -1.6800 c3        1 MOL     -0.251451
      2 C2          1.2730    6.7460   -1.6080 c         1 MOL      0.564021
      3 O1          1.0100    6.0260   -2.6230 o         1 MOL     -0.562593
      4 H1          0.5510    8.5990   -0.7120 hc        1 MOL      0.067893
      5 H2          1.8250    8.8320   -1.9330 hc        1 MOL      0.067893
      6 H3          0.1670    8.4320   -2.4420 hc        1 MOL      0.067893
      7 N1          1.7600    6.1510   -0.4940 n         1 MOL     -0.369932
      8 C3          1.9540    4.7090   -0.3680 c3        1 MOL     -0.132910
      9 C4          0.6890    3.8490   -0.0500 c         1 MOL      0.558410
     10 O2          0.7830    2.6590   -0.1280 o         1 MOL     -0.472859
     11 C5          3.1120    4.4600    0.6730 c3        1 MOL     -0.152922
     12 C6          3.0840    5.1530    2.0010 c         1 MOL      0.733509
     13 O3          3.8130    4.5620    2.7940 o         1 MOL     -0.724833
     14 O4          2.3830    6.1620    2.2000 o         1 MOL     -0.724833
     15 H4          2.0960    6.7020    0.2860 hn        1 MOL      0.262120
     16 H5          2.2880    4.2960   -1.3210 h1        1 MOL      0.109015
     17 H6          4.0610    4.6840    0.1950 hc        1 MOL      0.053269
     18 H7          3.1870    3.3870    0.8880 hc        1 MOL      0.053269
     19 N2         -0.5300    4.4390    0.1960 n         1 MOL     -0.486572
     20 C7         -1.7630    3.7360    0.5370 c3        1 MOL      0.100179
     21 C8         -2.7050    3.4140   -0.6470 c         1 MOL      0.574750
     22 O5         -3.1420    4.3800   -1.3650 o         1 MOL     -0.555522
     23 C9         -2.4430    4.5940    1.6480 c3        1 MOL     -0.009247
     24 C10        -1.5770    4.8970    2.8970 c3        1 MOL     -0.029263
     25 C11        -2.4160    5.4540    4.0290 c3        1 MOL     -0.026337
     26 C12        -3.2890    4.3390    4.6740 c3        1 MOL      0.075173
     27 N3         -3.6710    4.6890    6.1000 n4        1 MOL     -0.524851
     28 H8         -0.5840    5.4460    0.2480 hn        1 MOL      0.283886
     29 H9         -1.4430    2.8110    1.0100 h1        1 MOL      0.108237
     30 H10        -3.4290    4.2060    1.9290 hc        1 MOL      0.007673
     31 H11        -2.6290    5.5200    1.1000 hc        1 MOL      0.007673
     32 H12        -0.8680    5.6490    2.5710 hc        1 MOL      0.039283
     33 H13        -0.9660    4.0560    3.2210 hc        1 MOL      0.039283
     34 H14        -3.1060    6.1940    3.6300 hc        1 MOL      0.034656
     35 H15        -1.8540    6.0390    4.7500 hc        1 MOL      0.034656
     36 H16        -2.7980    3.3650    4.5910 hx        1 MOL      0.097447
     37 H17        -4.2030    4.3060    4.0740 hx        1 MOL      0.097447
     38 H18        -4.0320    3.8590    6.5470 hn        1 MOL      0.366316
     39 H19        -2.8570    4.9220    6.6490 hn        1 MOL      0.366316
     40 H20        -4.4020    5.3720    6.1210 hn        1 MOL      0.366316
     41 N4         -3.1960    2.1850   -0.7460 n         1 MOL     -0.500451
     42 C13        -3.2230    1.0420    0.2280 c3        1 MOL      0.077436
     43 C14        -3.8200    1.3660    1.5600 c         1 MOL      0.477970
     44 O6         -3.0510    1.5060    2.4680 o         1 MOL     -0.608822
     45 C15        -1.9910    0.1420    0.1270 c3        1 MOL     -0.213303
     46 C16        -1.5730   -0.2580   -1.2730 c         1 MOL      0.971023
     47 O7         -2.3760   -0.3560   -2.2600 o         1 MOL     -0.842674
     48 O8         -0.3780   -0.3560   -1.5650 o         1 MOL     -0.842674
     49 H21        -3.8190    2.0250   -1.5210 hn        1 MOL      0.287221
     50 H22        -3.9620    0.3270   -0.1280 h1        1 MOL      0.051221
     51 H23        -2.1560   -0.7860    0.6580 hc        1 MOL      0.045211
     52 H24        -1.1630    0.7180    0.5420 hc        1 MOL      0.045211
     53 N5         -5.1060    1.6130    1.7310 n         1 MOL     -0.278967
     54 C17        -6.0670    1.6740    0.6540 c3        1 MOL      0.006895
     55 C18        -7.5090    1.8270    1.2090 c         1 MOL      0.512422
     56 O9         -7.7930    2.2110    2.3220 o         1 MOL     -0.537756
     57 H25        -5.4640    1.7640    2.6570 hn        1 MOL      0.214282
     58 H26        -5.8710    0.7890    0.0490 h1        1 MOL      0.037408
     59 H27        -5.8590    2.5070   -0.0130 h1        1 MOL      0.037408
     60 N6         -8.4720    1.4010    0.3980 n         1 MOL     -0.297350
     61 C19        -8.4750    0.8880   -0.9500 c3        1 MOL     -0.123522
     62 C20        -8.3130   -0.6320   -0.8510 c         1 MOL      0.496524
     63 O10        -9.1350   -1.3680   -0.3060 o         1 MOL     -0.501462
     64 C21        -9.7960    1.2080   -1.7440 c3        1 MOL     -0.098368
     65 C22       -10.6690    2.4170   -1.2730 c         1 MOL      0.699466
     66 O11       -11.3870    2.2840   -0.2650 o         1 MOL     -0.641111
     67 O12       -10.6010    3.4520   -1.9580 o         1 MOL     -0.641111
     68 H28        -9.4160    1.6130    0.6640 hn        1 MOL      0.247438
     69 H29        -7.6000    1.2990   -1.4500 h1        1 MOL      0.082352
     70 H30       -10.5040    0.3810   -1.7750 hc        1 MOL      0.031648
     71 H31        -9.5130    1.2940   -2.7860 hc        1 MOL      0.031648
     72 N7         -7.3200   -1.1830   -1.5630 n         1 MOL     -0.399198
     73 C23        -6.9360   -2.5930   -1.6310 c3        1 MOL     -0.043198
     74 C24        -5.8930   -3.1220   -0.6660 c         1 MOL      0.779396
     75 O13        -5.4270   -2.3760    0.1400 o         1 MOL     -0.567438
     76 H32        -6.6880   -0.5390   -2.0180 hn        1 MOL      0.271285
     77 H33        -6.5180   -2.7790   -2.6150 h1        1 MOL      0.057953
     78 H34        -7.7890   -3.2610   -1.5080 h1        1 MOL      0.057953
     79 N8         -5.5970   -4.3860   -0.7810 n         1 MOL     -0.729292
     80 C25        -4.6530   -4.9910    0.1370 c3        1 MOL      0.049861
     81 C26        -3.2720   -4.3710    0.1630 c         1 MOL      0.431958
     82 O14        -2.7630   -3.9400   -0.8400 o         1 MOL     -0.414359
     83 C27        -4.5950   -6.4920   -0.2340 c3        1 MOL      0.424375
     84 C28        -4.1350   -7.3480    0.8360 c3        1 MOL     -0.262662
     85 O15        -3.8690   -6.7240   -1.4970 oh        1 MOL     -0.578696
     86 H35        -6.2050   -4.9770   -1.3400 hn        1 MOL      0.330280
     87 H36        -5.0170   -4.8160    1.1480 h1        1 MOL      0.060995
     88 H37        -5.6170   -6.8490   -0.3770 h1        1 MOL     -0.037703
     89 H38        -4.5540   -6.6840   -2.1710 ho        1 MOL      0.358575
     90 H39        -4.0180   -8.3590    0.4560 hc        1 MOL      0.068666
     91 H40        -3.1500   -6.9930    1.1480 hc        1 MOL      0.068666
     92 H41        -4.7590   -7.3180    1.7190 hc        1 MOL      0.068666
     93 N9         -2.6550   -4.2690    1.3480 n         1 MOL     -0.163557
     94 C29        -1.3290   -3.7140    1.5370 c3        1 MOL     -0.329154
     95 C30        -0.2500   -4.7040    1.1550 c         1 MOL      0.643358
     96 O16        -0.4850   -5.9260    1.3700 o         1 MOL     -0.553423
     97 C31        -1.2620   -3.2370    2.9910 c3        1 MOL      0.146753
     98 C32        -2.3840   -2.1900    3.2200 c3        1 MOL      0.131730
     99 C33         0.0180   -2.5970    3.4040 c3        1 MOL     -0.236581
    100 C34        -2.8030   -2.0510    4.6720 c3        1 MOL     -0.259205
    101 H42        -3.1250   -4.7110    2.1170 hn        1 MOL      0.167818
    102 H43        -1.1870   -2.8730    0.8610 h1        1 MOL      0.055184
    103 H44        -1.3830   -4.1190    3.6320 hc        1 MOL      0.026486
    104 H45        -3.2750   -2.3990    2.6310 hc        1 MOL      0.029836
    105 H46        -2.0380   -1.2220    2.8580 hc        1 MOL      0.029836
    106 H47         0.1940   -2.6700    4.4740 hc        1 MOL      0.051960
    107 H48         0.8690   -3.1610    3.0120 hc        1 MOL      0.051960
    108 H49         0.1900   -1.5760    3.0560 hc        1 MOL      0.051960
    109 H50        -1.8810   -2.0520    5.2510 hc        1 MOL      0.049254
    110 H51        -3.4700   -1.2150    4.8630 hc        1 MOL      0.049254
    111 H52        -3.2990   -2.9900    4.9210 hc        1 MOL      0.049254
    112 N10         0.8500   -4.2260    0.5530 n         1 MOL     -0.216236
    113 C35         1.9900   -5.0670    0.2520 c3        1 MOL     -0.284487
    114 C36         3.3210   -4.4250    0.8000 c         1 MOL      0.632921
    115 O17         4.3370   -5.1060    1.0370 o         1 MOL     -0.535684
    116 C37         2.0730   -5.6180   -1.1850 c3        1 MOL      0.234134
    117 C38         1.9960   -4.5560   -2.2530 c3        1 MOL     -0.320070
    118 O18         0.9320   -6.4600   -1.3350 oh        1 MOL     -0.513245
    119 H53         0.8830   -3.2160    0.4240 hn        1 MOL      0.279275
    120 H54         2.0570   -5.8850    0.9580 h1        1 MOL      0.149431
    121 H55         2.9960   -6.1880   -1.2600 h1        1 MOL      0.056165
    122 H56         1.1470   -7.0430   -2.0680 ho        1 MOL      0.357130
    123 H57         2.1950   -4.9570   -3.2530 hc        1 MOL      0.110941
    124 H58         1.0510   -4.0150   -2.1440 hc        1 MOL      0.110941
    125 H59         2.8410   -3.8760   -2.1290 hc        1 MOL      0.110941
    126 N11         3.4570   -3.0880    0.9340 n         1 MOL     -0.631196
    127 C39         4.6560   -2.2920    1.3770 c3        1 MOL      0.022093
    128 C40         5.7970   -2.2520    0.3210 c         1 MOL      0.493849
    129 O19         5.7180   -2.9430   -0.6890 o         1 MOL     -0.437196
    130 C41         5.2140   -2.6870    2.7630 c3        1 MOL      0.455389
    131 C42         4.2130   -2.8440    3.9020 c3        1 MOL     -0.425039
    132 O20         6.2510   -1.8030    3.1570 oh        1 MOL     -0.630757
    133 H60         2.6510   -2.5330    0.7070 hn        1 MOL      0.337484
    134 H61         4.2460   -1.2860    1.4350 h1        1 MOL      0.109280
    135 H62         5.7930   -3.6160    2.6730 h1        1 MOL     -0.005219
    136 H63         6.7040   -2.2500    3.8850 ho        1 MOL      0.327044
    137 H64         3.5800   -3.7100    3.6830 hc        1 MOL      0.113416
    138 H65         4.7560   -2.9650    4.8360 hc        1 MOL      0.113416
    139 H66         3.6050   -1.9470    3.9620 hc        1 MOL      0.113416
    140 N12         6.7570   -1.3470    0.4870 n         1 MOL     -0.450448
    141 C43         7.8360   -1.0810   -0.5230 c3        1 MOL     -0.038336
    142 C44         7.4640   -0.1040   -1.6040 c         1 MOL      0.551857
    143 O21         8.1450    0.0480   -2.6120 o         1 MOL     -0.532261
    144 C45         9.2040   -0.7310    0.2150 c3        1 MOL     -0.143920
    145 C46         9.2190    0.3340    1.3080 c3        1 MOL      0.149057
    146 C47        10.5230    0.4460    2.1320 c3        1 MOL     -0.266275
    147 C48        10.9030   -0.8760    2.7900 c3        1 MOL      0.157664
    148 N13        10.1030   -1.2420    3.9790 n4        1 MOL     -0.247099
    149 H67         6.7450   -0.9550    1.4230 hn        1 MOL      0.237793
    150 H68         8.0390   -2.0190   -1.0410 h1        1 MOL      0.144412
    151 H69         9.9840   -0.5340   -0.5140 hc        1 MOL      0.055199
    152 H70         9.3850   -1.6390    0.7940 hc        1 MOL      0.055199
    153 H71         8.3980    0.2600    2.0190 hc        1 MOL      0.007255
    154 H72         9.0870    1.3030    0.8230 hc        1 MOL      0.007255
    155 H73        10.5730    1.2630    2.8420 hc        1 MOL      0.114149
    156 H74        11.3280    0.4980    1.3860 hc        1 MOL      0.114149
    157 H75        11.9440   -0.9730    3.0880 hx        1 MOL      0.031944
    158 H76        10.7460   -1.7210    2.1190 hx        1 MOL      0.031944
    159 H77         9.4020   -1.9070    3.6810 hn        1 MOL      0.250057
    160 H78        10.6630   -1.7250    4.6800 hn        1 MOL      0.250057
    161 H79         9.5400   -0.4610    4.2920 hn        1 MOL      0.250057
    162 N14         6.2800    0.4870   -1.4260 n         1 MOL     -0.509492
    163 C49         5.5510    1.3650   -2.3280 c3        1 MOL      0.176991
    164 C50         6.1520    2.7880   -2.5680 c         1 MOL      0.177289
    165 O22         5.4010    3.7630   -2.5180 o         1 MOL     -0.417841
    166 C51         4.0490    1.3140   -2.0770 c3        1 MOL      0.334649
    167 C52         3.2930   -0.0120   -2.2590 c3        1 MOL      0.127446
    168 C53         2.9790   -0.3060   -3.7370 c         1 MOL      0.448904
    169 O23         1.9100    0.1580   -4.2790 o         1 MOL     -0.684729
    170 O24         3.7730   -1.0070   -4.4150 o         1 MOL     -0.684729
    171 H80         5.9120    0.4230   -0.4890 hn        1 MOL      0.262489
    172 H81         5.6790    0.9510   -3.3320 h1        1 MOL      0.128991
    173 H82         3.6090    2.0830   -2.7130 hc        1 MOL     -0.097748
    174 H83         3.8170    1.6290   -1.0570 hc        1 MOL     -0.097748
    175 H84         2.3220    0.1200   -1.7800 hc        1 MOL     -0.069197
    176 H85         3.7710   -0.8790   -1.8050 hc        1 MOL     -0.069197
    177 N15         7.4780    2.9310   -2.7960 n         1 MOL     -0.133025
    178 C54         8.2100    4.1410   -2.7910 c3        1 MOL     -0.077040
    179 H86         8.3250    4.4990   -3.8130 h1        1 MOL      0.057007
    180 H87         7.6740    4.8870   -2.2040 h1        1 MOL      0.057007
    181 H88         9.1930    3.9700   -2.3530 h1        1 MOL      0.057007
    182 H89         7.9680    2.0640   -2.9970 hn        1 MOL      0.187095
    183 Ca1        -0.5670   -0.2020   -4.1610 Ca        1 MOL      1.749730
    184 O25        -0.7860   -2.9560   -3.9530 oh        1 MOL     -0.910978
    185 H90        -0.4770   -3.1470   -4.8360 ho        1 MOL      0.428444
    186 H91        -0.9440   -3.8280   -3.5690 ho        1 MOL      0.428444
    187 O26        -0.2030    2.2860   -3.2020 oh        1 MOL     -0.910978
    188 H92         0.3150    2.9840   -3.6160 ho        1 MOL      0.428444
    189 H93         0.0400    2.3260   -2.2760 ho        1 MOL      0.428444
@<TRIPOS>BOND
     1    1    2 1   
     2    1    4 1   
     3    1    5 1   
     4    1    6 1   
     5    2    3 2   
     6    2    7 1   
     7    7    8 1   
     8    7   15 1   
     9    8    9 1   
    10    8   11 1   
    11    8   16 1   
    12    9   10 2   
    13    9   19 1   
    14   11   12 1   
    15   11   17 1   
    16   11   18 1   
    17   12   13 1   
    18   12   14 1   
    19   19   20 1   
    20   19   28 1   
    21   20   21 1   
    22   20   23 1   
    23   20   29 1   
    24   21   22 2   
    25   21   41 1   
    26   23   24 1   
    27   23   30 1   
    28   23   31 1   
    29   24   25 1   
    30   24   32 1   
    31   24   33 1   
    32   25   26 1   
    33   25   34 1   
    34   25   35 1   
    35   26   27 1   
    36   26   36 1   
    37   26   37 1   
    38   27   38 1   
    39   27   39 1   
    40   27   40 1   
    41   41   42 1   
    42   41   49 1   
    43   42   43 1   
    44   42   45 1   
    45   42   50 1   
    46   43   44 2   
    47   43   53 1   
    48   45   46 1   
    49   45   51 1   
    50   45   52 1   
    51   46   47 1   
    52   46   48 1   
    53   53   54 1   
    54   53   57 1   
    55   54   55 1   
    56   54   58 1   
    57   54   59 1   
    58   55   56 2   
    59   55   60 1   
    60   60   61 1   
    61   60   68 1   
    62   61   62 1   
    63   61   64 1   
    64   61   69 1   
    65   62   63 2   
    66   62   72 1   
    67   64   65 1   
    68   64   70 1   
    69   64   71 1   
    70   65   66 1   
    71   65   67 1   
    72   72   73 1   
    73   72   76 1   
    74   73   74 1   
    75   73   77 1   
    76   73   78 1   
    77   74   75 2   
    78   74   79 1   
    79   79   80 1   
    80   79   86 1   
    81   80   81 1   
    82   80   83 1   
    83   80   87 1   
    84   81   82 2   
    85   81   93 1   
    86   83   84 1   
    87   83   85 1   
    88   83   88 1   
    89   84   90 1   
    90   84   91 1   
    91   84   92 1   
    92   85   89 1   
    93   93   94 1   
    94   93  101 1   
    95   94   95 1   
    96   94   97 1   
    97   94  102 1   
    98   95   96 2   
    99   95  112 1   
   100   97   98 1   
   101   97   99 1   
   102   97  103 1   
   103   98  100 1   
   104   98  104 1   
   105   98  105 1   
   106   99  106 1   
   107   99  107 1   
   108   99  108 1   
   109  100  109 1   
   110  100  110 1   
   111  100  111 1   
   112  112  113 1   
   113  112  119 1   
   114  113  114 1   
   115  113  116 1   
   116  113  120 1   
   117  114  115 2   
   118  114  126 1   
   119  116  117 1   
   120  116  118 1   
   121  116  121 1   
   122  117  123 1   
   123  117  124 1   
   124  117  125 1   
   125  118  122 1   
   126  126  127 1   
   127  126  133 1   
   128  127  128 1   
   129  127  130 1   
   130  127  134 1   
   131  128  129 2   
   132  128  140 1   
   133  130  131 1   
   134  130  132 1   
   135  130  135 1   
   136  131  137 1   
   137  131  138 1   
   138  131  139 1   
   139  132  136 1   
   140  140  141 1   
   141  140  149 1   
   142  141  142 1   
   143  141  144 1   
   144  141  150 1   
   145  142  143 2   
   146  142  162 1   
   147  144  145 1   
   148  144  151 1   
   149  144  152 1   
   150  145  146 1   
   151  145  153 1   
   152  145  154 1   
   153  146  147 1   
   154  146  155 1   
   155  146  156 1   
   156  147  148 1   
   157  147  157 1   
   158  147  158 1   
   159  148  159 1   
   160  148  160 1   
   161  148  161 1   
   162  162  163 1   
   163  162  171 1   
   164  163  164 1   
   165  163  166 1   
   166  163  172 1   
   167  164  165 2   
   168  164  177 1   
   169  166  167 1   
   170  166  173 1   
   171  166  174 1   
   172  167  168 1   
   173  167  175 1   
   174  167  176 1   
   175  168  169 1   
   176  168  170 1   
   177  177  178 1   
   178  177  182 1   
   179  178  179 1   
   180  178  180 1   
   181  178  181 1   
   182  184  185 1   
   183  184  186 1   
   184  187  188 1   
   185  187  189 1   
@<TRIPOS>SUBSTRUCTURE
     1 MOL         1 TEMP              0 ****  ****    0 ROOT
