@<TRIPOS>MOLECULE
MOL
  182   178     1     0     0
SMALL
resp


@<TRIPOS>ATOM
      1 C1         -0.5020   -4.3360    6.0780 c3        1 MOL     -0.428856
      2 C2         -0.3000   -3.8850    4.6580 c         1 MOL      0.693859
      3 O1         -1.2680   -3.6520    3.9050 o         1 MOL     -0.605658
      4 H1         -0.8830   -3.5050    6.6720 hc        1 MOL      0.123269
      5 H2         -1.2190   -5.1570    6.1010 hc        1 MOL      0.123269
      6 H3          0.4490   -4.6710    6.4920 hc        1 MOL      0.123269
      7 N1          0.9060   -3.6640    4.2280 n         1 MOL     -0.559169
      8 C3          1.3030   -3.3870    2.8760 c3        1 MOL      0.093312
      9 C4          1.0060   -4.5290    1.8680 c         1 MOL      0.562994
     10 O2          0.7520   -5.6690    2.2780 o         1 MOL     -0.541221
     11 C5          2.6900   -2.7790    2.8660 c3        1 MOL     -0.092617
     12 C6          2.9870   -1.8540    1.7070 c         1 MOL      0.575769
     13 O3          3.7280   -0.8160    1.8770 o         1 MOL     -0.672624
     14 O4          2.5110   -2.0310    0.5840 o         1 MOL     -0.672624
     15 H4          1.6940   -3.7790    4.8540 hn        1 MOL      0.311193
     16 H5          0.6720   -2.5330    2.6610 h1        1 MOL      0.030177
     17 H6          3.4000   -3.5990    2.8090 hc        1 MOL      0.047389
     18 H7          2.8260   -2.2440    3.8100 hc        1 MOL      0.047389
     19 N2          1.2310   -4.3220    0.5730 n         1 MOL     -0.393817
     20 C7          1.0390   -5.4080   -0.4800 c3        1 MOL     -0.019764
     21 C8          2.2160   -5.4840   -1.4290 c         1 MOL      0.509588
     22 O5          2.4320   -6.5740   -1.9990 o         1 MOL     -0.551178
     23 C9         -0.3470   -5.2580   -1.1060 c3        1 MOL     -0.078184
     24 C10        -0.5020   -4.0320   -1.9140 c3        1 MOL      0.241949
     25 C11        -1.8620   -3.8660   -2.6170 c3        1 MOL      0.051399
     26 C12        -2.1240   -2.4730   -3.2700 c3        1 MOL      0.013438
     27 N3         -3.4350   -2.3930   -3.9300 n4        1 MOL     -0.144543
     28 H8          1.4060   -3.3650    0.2980 hn        1 MOL      0.248898
     29 H9          1.0310   -6.3860   -0.0040 h1        1 MOL      0.120713
     30 H10        -1.0560   -5.2250   -0.2730 hc        1 MOL      0.024929
     31 H11        -0.5340   -6.1470   -1.7070 hc        1 MOL      0.024929
     32 H12         0.2670   -4.0390   -2.6780 hc        1 MOL     -0.048978
     33 H13        -0.2770   -3.1390   -1.3280 hc        1 MOL     -0.048978
     34 H14        -2.5810   -4.0230   -1.8230 hc        1 MOL     -0.029385
     35 H15        -2.0310   -4.6950   -3.3140 hc        1 MOL     -0.029385
     36 H16        -1.2420   -2.3430   -3.8940 hx        1 MOL      0.029393
     37 H17        -2.0750   -1.7220   -2.4790 hx        1 MOL      0.029393
     38 H18        -3.5660   -1.5140   -4.4160 hn        1 MOL      0.237853
     39 H19        -3.6480   -3.1270   -4.5890 hn        1 MOL      0.237853
     40 H20        -4.1020   -2.3820   -3.1740 hn        1 MOL      0.237853
     41 N4          3.0270   -4.4360   -1.6030 n         1 MOL     -0.347379
     42 C13         4.4050   -4.4590   -2.2030 c3        1 MOL      0.192141
     43 C14         5.5170   -4.2260   -1.1320 c         1 MOL      0.384027
     44 O6          6.6000   -4.7070   -1.3620 o         1 MOL     -0.506266
     45 C15         4.4410   -3.3770   -3.2460 c3        1 MOL     -0.374367
     46 C16         3.7150   -2.0980   -2.8000 c         1 MOL      0.840528
     47 O7          2.7450   -1.7240   -3.5180 o         1 MOL     -0.723405
     48 O8          4.0730   -1.4970   -1.7960 o         1 MOL     -0.723405
     49 H21         2.6670   -3.5860   -1.2000 hn        1 MOL      0.195238
     50 H22         4.5430   -5.4400   -2.6680 h1        1 MOL      0.096093
     51 H23         3.8890   -3.7150   -4.1220 hc        1 MOL      0.097186
     52 H24         5.4700   -3.1730   -3.5260 hc        1 MOL      0.097186
     53 N5          5.2970   -3.4640    0.0100 n         1 MOL     -0.109556
     54 C17         6.2760   -2.9940    1.0340 c3        1 MOL     -0.225766
     55 C18         7.1040   -1.7410    0.8500 c         1 MOL      0.589504
     56 O9          8.0200   -1.4770    1.5960 o         1 MOL     -0.549926
     57 H25         4.3810   -3.0410    0.0360 hn        1 MOL     -0.032490
     58 H26         6.9770   -3.7880    1.3200 h1        1 MOL      0.126301
     59 H27         5.6140   -2.8830    1.8950 h1        1 MOL      0.126301
     60 N6          6.7400   -0.9380   -0.1720 n         1 MOL     -0.343364
     61 C19         7.4400    0.2460   -0.6760 c3        1 MOL      0.278503
     62 C20         6.4540    1.4960   -0.6670 c         1 MOL      0.295004
     63 O10         5.2190    1.2640   -0.6740 o         1 MOL     -0.499488
     64 C21         7.9610   -0.1770   -2.1110 c3        1 MOL     -0.334600
     65 C22         8.4020    1.0670   -2.8470 c         1 MOL      0.665751
     66 N7          9.6250    1.5780   -2.7090 n         1 MOL     -0.841738
     67 O11         7.6450    1.7170   -3.5380 o         1 MOL     -0.556956
     68 H28         5.9400   -1.2240   -0.7130 hn        1 MOL      0.241326
     69 H29         8.3190    0.4710   -0.0770 h1        1 MOL      0.014658
     70 H30         7.2130   -0.5830   -2.7820 hc        1 MOL      0.114624
     71 H31         8.8280   -0.8330   -1.9410 hc        1 MOL      0.114624
     72 H32        10.3850    1.0160   -2.3360 hn        1 MOL      0.375663
     73 H33         9.8730    2.3580   -3.2940 hn        1 MOL      0.375663
     74 N8          6.9430    2.7660   -0.7500 n         1 MOL     -0.135512
     75 C23         5.9590    3.9120   -0.7950 c3        1 MOL     -0.352789
     76 C24         5.1610    4.0700    0.5460 c         1 MOL      0.574037
     77 O12         5.6850    3.7990    1.6870 o         1 MOL     -0.507425
     78 H34         7.9140    2.9380   -0.5560 hn        1 MOL      0.255575
     79 H35         5.3030    3.6970   -1.6390 h1        1 MOL      0.148911
     80 H36         6.5880    4.7910   -0.9170 h1        1 MOL      0.148911
     81 N9          3.8500    4.3120    0.4770 n         1 MOL     -0.402977
     82 C25         2.8200    4.3860    1.5750 c3        1 MOL      0.049749
     83 C26         2.3810    2.9450    1.9900 c         1 MOL      0.312167
     84 O13         2.9820    1.9780    1.5620 o         1 MOL     -0.371268
     85 C27         1.5920    5.1870    1.1440 c3        1 MOL      0.057422
     86 C28         1.8590    6.4810    0.3390 ca        1 MOL      0.211794
     87 C29         1.1550    6.7590   -0.8440 ca        1 MOL     -0.349576
     88 C30         2.6530    7.4060    0.9350 ca        1 MOL     -0.349576
     89 C31         1.3360    8.0870   -1.4260 ca        1 MOL     -0.102606
     90 C32         2.8500    8.7060    0.3130 ca        1 MOL     -0.102606
     91 C33         2.2000    9.0000   -0.8930 ca        1 MOL      0.206735
     92 O14         2.3560   10.1730   -1.5950 oh        1 MOL     -0.436488
     93 H37         3.5080    4.3690   -0.4700 hn        1 MOL      0.222086
     94 H38         3.3640    4.9300    2.3470 h1        1 MOL      0.104380
     95 H39         0.8560    5.4250    1.9110 hc        1 MOL     -0.000610
     96 H40         0.9700    4.5750    0.4810 hc        1 MOL     -0.000610
     97 H41         0.4020    6.0600   -1.2040 ha        1 MOL      0.164074
     98 H42         3.1750    7.1190    1.8340 ha        1 MOL      0.164074
     99 H43         0.7760    8.2920   -2.3230 ha        1 MOL      0.135465
    100 H44         3.5970    9.3660    0.7420 ha        1 MOL      0.135465
    101 H45         2.0480   10.0170   -2.4850 ho        1 MOL      0.331440
    102 N10         1.2780    2.8110    2.7180 n         1 MOL     -0.462298
    103 C34         0.5970    1.6270    3.1850 c3        1 MOL      0.005957
    104 C35         0.0230    0.6560    2.0700 c         1 MOL      0.630179
    105 O15         0.7200    0.3150    1.1740 o         1 MOL     -0.548259
    106 C36         1.4520    0.7800    4.1830 c3        1 MOL      0.397804
    107 C37         0.5940   -0.0910    5.1750 c3        1 MOL      0.041922
    108 C38         2.4150    1.5970    5.0070 c3        1 MOL     -0.447025
    109 C39        -0.3540    0.6940    6.1390 c3        1 MOL     -0.284205
    110 H46         0.9090    3.6780    3.0900 hn        1 MOL      0.280841
    111 H47        -0.2010    2.0140    3.8190 h1        1 MOL      0.048219
    112 H48         2.1360    0.1400    3.6060 hc        1 MOL     -0.007376
    113 H49         1.2260   -0.7710    5.7390 hc        1 MOL     -0.009574
    114 H50        -0.0800   -0.7150    4.5850 hc        1 MOL     -0.009574
    115 H51         1.9090    2.3680    5.6000 hc        1 MOL      0.107142
    116 H52         3.0040    0.9530    5.6580 hc        1 MOL      0.107142
    117 H53         3.2230    1.9500    4.3720 hc        1 MOL      0.107142
    118 H54         0.2820    1.2910    6.7830 hc        1 MOL      0.070467
    119 H55        -1.0510    1.3500    5.6160 hc        1 MOL      0.070467
    120 H56        -1.0110    0.0220    6.6980 hc        1 MOL      0.070467
    121 N11        -1.2490    0.3260    1.9740 n         1 MOL     -0.526211
    122 C40        -1.9880   -0.3530    0.9100 c3        1 MOL      0.016798
    123 C41        -3.4640    0.0400    0.6160 c         1 MOL      0.588606
    124 O16        -4.2340    0.0440    1.5710 o         1 MOL     -0.495055
    125 C42        -1.9650   -1.8390    1.2490 c3        1 MOL     -0.009122
    126 O17        -2.4420   -2.5790    0.1450 oh        1 MOL     -0.594882
    127 H57        -1.7780    0.8150    2.6850 hn        1 MOL      0.250741
    128 H58        -1.4910   -0.1640   -0.0400 h1        1 MOL      0.099924
    129 H59        -2.6110   -2.0360    2.1110 h1        1 MOL      0.134733
    130 H60        -0.9570   -2.1730    1.5000 h1        1 MOL      0.134733
    131 H61        -2.5710   -3.4410    0.5500 ho        1 MOL      0.416766
    132 N12        -3.8810    0.1330   -0.6310 n         1 MOL     -0.553824
    133 C43        -5.2780    0.2840   -1.0970 c3        1 MOL      0.132691
    134 C44        -5.3830   -0.1050   -2.5960 c         1 MOL      0.687728
    135 O18        -4.3540    0.0220   -3.3130 o         1 MOL     -0.605337
    136 C45        -5.7660    1.7600   -0.9680 c3        1 MOL     -0.138516
    137 H62        -3.1700    0.0590   -1.3340 hn        1 MOL      0.254200
    138 H63        -5.9730   -0.3410   -0.5290 h1        1 MOL      0.083812
    139 H64        -5.7860    2.0860    0.0710 hc        1 MOL      0.045118
    140 H65        -5.3180    2.4340   -1.7040 hc        1 MOL      0.045118
    141 H66        -6.7970    1.6590   -1.3080 hc        1 MOL      0.045118
    142 N13        -6.5140   -0.5640   -3.1040 n         1 MOL     -0.625562
    143 C46        -7.8710   -0.7060   -2.5370 c3        1 MOL      0.235463
    144 C47        -8.8350    0.4120   -2.9040 c         1 MOL      0.540726
    145 O19        -8.8370    0.9340   -4.0430 o         1 MOL     -0.561155
    146 C48        -8.4250   -2.0040   -3.1490 c3        1 MOL     -0.457217
    147 H67        -6.4180   -0.8380   -4.0700 hn        1 MOL      0.320135
    148 H68        -7.8000   -0.7900   -1.4530 h1        1 MOL      0.035983
    149 H69        -7.6820   -2.8040   -3.0990 hc        1 MOL      0.139943
    150 H70        -9.3830   -2.2950   -2.7110 hc        1 MOL      0.139943
    151 H71        -8.5600   -1.9060   -4.2300 hc        1 MOL      0.139943
    152 N14        -9.6150    0.9320   -1.9800 n         1 MOL     -0.500392
    153 C49        -9.8890    0.5260   -0.5770 c3        1 MOL      0.050843
    154 C50        -9.1170    1.4780    0.3490 c         1 MOL      0.370999
    155 O20        -8.6720    1.0530    1.4650 o         1 MOL     -0.523222
    156 C51       -11.4600    0.6160   -0.3510 c3        1 MOL      0.096654
    157 C52       -11.8990    0.4900    1.0830 c3        1 MOL     -0.354669
    158 C53       -13.3770    0.0790    1.3220 c         1 MOL      0.730149
    159 O21       -14.2320    0.9180    1.7140 o         1 MOL     -0.677992
    160 O22       -13.7790   -1.0960    1.1770 o         1 MOL     -0.677992
    161 H72       -10.2080    1.6680   -2.3360 hn        1 MOL      0.300077
    162 H73        -9.5320   -0.4840   -0.3710 h1        1 MOL      0.112838
    163 H74       -11.8010   -0.1820   -1.0180 hc        1 MOL      0.008422
    164 H75       -11.8320    1.5650   -0.7320 hc        1 MOL      0.008422
    165 H76       -11.7780    1.4720    1.5390 hc        1 MOL      0.089807
    166 H77       -11.2880   -0.2890    1.5400 hc        1 MOL      0.089807
    167 N15        -8.8450    2.7270    0.0170 n         1 MOL     -0.179497
    168 C54        -8.3150    3.7820    0.9690 c3        1 MOL     -0.261605
    169 H78        -7.9900    3.3060    1.8940 h1        1 MOL      0.127083
    170 H79        -7.4710    4.2970    0.5090 h1        1 MOL      0.127083
    171 H80        -9.1040    4.5020    1.1890 h1        1 MOL      0.127083
    172 H81        -9.0690    3.1100   -0.8920 hn        1 MOL      0.207345
    173 Ca1         2.8420    0.3110   -0.6320 Ca        1 MOL      1.697724
    174 O23         0.7610   -0.7460   -2.1040 oh        1 MOL     -0.808919
    175 H82         0.0470   -0.3320   -2.5880 ho        1 MOL      0.397009
    176 H83         1.2920   -1.1810   -2.7720 ho        1 MOL      0.397009
    177 O24         0.9890    2.2180   -1.2160 oh        1 MOL     -0.808919
    178 H84         1.0220    2.8010   -1.9760 ho        1 MOL      0.397009
    179 H85         0.0610    2.1140   -1.0310 ho        1 MOL      0.397009
    180 O25         2.8830    1.0880   -3.2380 oh        1 MOL     -0.808919
    181 H86         2.2750    1.3450   -3.9270 ho        1 MOL      0.397009
    182 H87         3.7380    1.0550   -3.6600 ho        1 MOL      0.397009
@<TRIPOS>BOND
     1    1    2 1   
     2    1    4 1   
     3    1    5 1   
     4    1    6 1   
     5    2    3 2   
     6    2    7 1   
     7    7    8 1   
     8    7   15 1   
     9    8    9 1   
    10    8   11 1   
    11    8   16 1   
    12    9   10 2   
    13    9   19 1   
    14   11   12 1   
    15   11   17 1   
    16   11   18 1   
    17   12   13 1   
    18   12   14 1   
    19   19   20 1   
    20   19   28 1   
    21   20   21 1   
    22   20   23 1   
    23   20   29 1   
    24   21   22 2   
    25   21   41 1   
    26   23   24 1   
    27   23   30 1   
    28   23   31 1   
    29   24   25 1   
    30   24   32 1   
    31   24   33 1   
    32   25   26 1   
    33   25   34 1   
    34   25   35 1   
    35   26   27 1   
    36   26   36 1   
    37   26   37 1   
    38   27   38 1   
    39   27   39 1   
    40   27   40 1   
    41   41   42 1   
    42   41   49 1   
    43   42   43 1   
    44   42   45 1   
    45   42   50 1   
    46   43   44 2   
    47   43   53 1   
    48   45   46 1   
    49   45   51 1   
    50   45   52 1   
    51   46   47 1   
    52   46   48 1   
    53   53   54 1   
    54   53   57 1   
    55   54   55 1   
    56   54   58 1   
    57   54   59 1   
    58   55   56 2   
    59   55   60 1   
    60   60   61 1   
    61   60   68 1   
    62   61   62 1   
    63   61   64 1   
    64   61   69 1   
    65   62   63 2   
    66   62   74 1   
    67   64   65 1   
    68   64   70 1   
    69   64   71 1   
    70   65   66 1   
    71   65   67 2   
    72   66   72 1   
    73   66   73 1   
    74   74   75 1   
    75   74   78 1   
    76   75   76 1   
    77   75   79 1   
    78   75   80 1   
    79   76   77 2   
    80   76   81 1   
    81   81   82 1   
    82   81   93 1   
    83   82   83 1   
    84   82   85 1   
    85   82   94 1   
    86   83   84 2   
    87   83  102 1   
    88   85   86 1   
    89   85   95 1   
    90   85   96 1   
    91   86   87 ar  
    92   86   88 ar  
    93   87   89 ar  
    94   87   97 1   
    95   88   90 ar  
    96   88   98 1   
    97   89   91 ar  
    98   89   99 1   
    99   90   91 ar  
   100   90  100 1   
   101   91   92 1   
   102   92  101 1   
   103  102  103 1   
   104  102  110 1   
   105  103  104 1   
   106  103  106 1   
   107  103  111 1   
   108  104  105 2   
   109  104  121 1   
   110  106  107 1   
   111  106  108 1   
   112  106  112 1   
   113  107  109 1   
   114  107  113 1   
   115  107  114 1   
   116  108  115 1   
   117  108  116 1   
   118  108  117 1   
   119  109  118 1   
   120  109  119 1   
   121  109  120 1   
   122  121  122 1   
   123  121  127 1   
   124  122  123 1   
   125  122  125 1   
   126  122  128 1   
   127  123  124 2   
   128  123  132 1   
   129  125  126 1   
   130  125  129 1   
   131  125  130 1   
   132  126  131 1   
   133  132  133 1   
   134  132  137 1   
   135  133  134 1   
   136  133  136 1   
   137  133  138 1   
   138  134  135 2   
   139  134  142 1   
   140  136  139 1   
   141  136  140 1   
   142  136  141 1   
   143  142  143 1   
   144  142  147 1   
   145  143  144 1   
   146  143  146 1   
   147  143  148 1   
   148  144  145 2   
   149  144  152 1   
   150  146  149 1   
   151  146  150 1   
   152  146  151 1   
   153  152  153 1   
   154  152  161 1   
   155  153  154 1   
   156  153  156 1   
   157  153  162 1   
   158  154  155 2   
   159  154  167 1   
   160  156  157 1   
   161  156  163 1   
   162  156  164 1   
   163  157  158 1   
   164  157  165 1   
   165  157  166 1   
   166  158  159 1   
   167  158  160 1   
   168  167  168 1   
   169  167  172 1   
   170  168  169 1   
   171  168  170 1   
   172  168  171 1   
   173  174  175 1   
   174  174  176 1   
   175  177  178 1   
   176  177  179 1   
   177  180  181 1   
   178  180  182 1   
@<TRIPOS>SUBSTRUCTURE
     1 MOL         1 TEMP              0 ****  ****    0 ROOT
