@<TRIPOS>MOLECULE
MOL
  175   173     1     0     0
SMALL
resp


@<TRIPOS>ATOM
      1 C1         -6.5900    7.8460    2.4660 c3        1 MOL     -0.409631
      2 C2         -7.1220    7.3400    1.2180 c         1 MOL      0.789729
      3 O1         -6.9370    7.8860    0.1740 o         1 MOL     -0.626245
      4 H1         -6.2640    8.8770    2.3300 hc        1 MOL      0.091761
      5 H2         -7.3630    7.8090    3.2340 hc        1 MOL      0.091761
      6 H3         -5.7420    7.2350    2.7750 hc        1 MOL      0.091761
      7 N1         -7.7670    6.2070    1.3070 n         1 MOL     -0.606712
      8 C3         -8.6740    5.6570    0.2090 c3        1 MOL      0.369947
      9 C4         -7.8760    4.6950   -0.6500 c         1 MOL      0.441895
     10 O2         -8.4000    4.1860   -1.6340 o         1 MOL     -0.528311
     11 C5         -9.8300    4.9050    1.0570 c3        1 MOL     -0.383781
     12 C6        -11.0380    4.4090    0.2240 c         1 MOL      0.785998
     13 O3        -11.5950    3.3330    0.6050 o         1 MOL     -0.744156
     14 O4        -11.4330    5.0240   -0.7710 o         1 MOL     -0.744156
     15 H4         -7.8240    5.6390    2.1400 hn        1 MOL      0.284243
     16 H5         -9.1090    6.4270   -0.4350 h1        1 MOL      0.008817
     17 H6        -10.1720    5.5970    1.8150 hc        1 MOL      0.054715
     18 H7         -9.4110    3.9640    1.4030 hc        1 MOL      0.054715
     19 N2         -6.6930    4.2990   -0.2510 n         1 MOL     -0.510495
     20 C7         -5.7510    3.3810   -0.9240 c3        1 MOL      0.454127
     21 C8         -4.9980    2.4610    0.0250 c         1 MOL      0.394646
     22 O5         -4.6410    2.8590    1.1260 o         1 MOL     -0.536750
     23 C9         -4.7570    4.0710   -1.8190 c3        1 MOL     -0.174296
     24 H8         -6.3660    4.8410    0.5300 hn        1 MOL      0.216275
     25 H9         -6.3580    2.8110   -1.6310 h1        1 MOL      0.018143
     26 H10        -4.1530    4.8310   -1.3310 hc        1 MOL      0.038425
     27 H11        -4.0980    3.3620   -2.3170 hc        1 MOL      0.038425
     28 H12        -5.3920    4.4930   -2.5950 hc        1 MOL      0.038425
     29 N3         -4.6580    1.2280   -0.3360 n         1 MOL     -0.386737
     30 C10        -5.2150    0.3790   -1.4190 c3        1 MOL     -0.028566
     31 C11        -5.5740   -1.0300   -0.8330 c         1 MOL      0.556913
     32 O6         -4.9730   -1.5340    0.0700 o         1 MOL     -0.551146
     33 C12        -4.3560    0.1900   -2.6780 c3        1 MOL     -0.154046
     34 C13        -2.9360   -0.3910   -2.3250 c         1 MOL      0.710348
     35 O7         -2.0700    0.3350   -1.7580 o         1 MOL     -0.733246
     36 O8         -2.6070   -1.5740   -2.5690 o         1 MOL     -0.733246
     37 H13        -3.9490    0.7670    0.2200 hn        1 MOL      0.295352
     38 H14        -6.1180    0.9100   -1.7150 h1        1 MOL      0.037042
     39 H15        -4.2280    1.1590   -3.1770 hc        1 MOL      0.037444
     40 H16        -4.8690   -0.5000   -3.3390 hc        1 MOL      0.037444
     41 N4         -6.6090   -1.6290   -1.4240 n         1 MOL     -0.442236
     42 C14        -7.1190   -2.9980   -1.0140 c3        1 MOL      0.048115
     43 C15        -6.8550   -4.1420   -1.9720 c         1 MOL      0.529590
     44 O9         -7.7770   -4.4950   -2.7610 o         1 MOL     -0.572266
     45 H17        -7.0800   -1.1420   -2.1710 hn        1 MOL      0.325407
     46 H18        -8.2040   -2.8960   -1.0530 h1        1 MOL      0.059650
     47 H19        -6.8040   -3.2970   -0.0180 h1        1 MOL      0.059650
     48 N5         -5.7210   -4.8080   -2.0810 n         1 MOL     -0.503367
     49 C16        -4.4560   -4.5960   -1.3500 c3        1 MOL      0.030224
     50 C17        -4.5190   -5.2110    0.0360 c         1 MOL      0.591150
     51 O10        -5.0610   -6.3180    0.2630 o         1 MOL     -0.567260
     52 C18        -3.2960   -5.1800   -2.1860 c3        1 MOL     -0.126822
     53 C19        -1.8950   -4.6680   -1.8560 c         1 MOL      0.602576
     54 N6         -0.8820   -4.9940   -2.5960 n         1 MOL     -0.704328
     55 O11        -1.6690   -3.9070   -0.9370 o         1 MOL     -0.612859
     56 H20        -5.6860   -5.4380   -2.8700 hn        1 MOL      0.309580
     57 H21        -4.3290   -3.5180   -1.2250 h1        1 MOL      0.100295
     58 H22        -3.3160   -4.9110   -3.2410 hc        1 MOL      0.066483
     59 H23        -3.3420   -6.2700   -2.1100 hc        1 MOL      0.066483
     60 H24        -0.9250   -5.6380   -3.3760 hn        1 MOL      0.335661
     61 H25        -0.0210   -4.5490   -2.3110 hn        1 MOL      0.335661
     62 N7         -3.9220   -4.5000    0.9840 n         1 MOL     -0.324523
     63 C20        -3.6900   -4.9780    2.4130 c3        1 MOL     -0.119954
     64 C21        -2.2500   -5.3100    2.7820 c         1 MOL      0.587617
     65 O12        -2.0660   -6.0270    3.7980 o         1 MOL     -0.574812
     66 H26        -3.4780   -3.6410    0.6820 hn        1 MOL      0.244075
     67 H27        -4.3850   -5.8040    2.5970 h1        1 MOL      0.089866
     68 H28        -3.8420   -4.1330    3.0730 h1        1 MOL      0.089866
     69 N8         -1.2150   -4.8290    1.9860 n         1 MOL     -0.265644
     70 C22         0.1790   -5.0800    2.1860 c3        1 MOL     -0.209108
     71 C23         1.0280   -3.7940    1.8880 c         1 MOL      0.364058
     72 O13         0.6390   -2.8220    1.1940 o         1 MOL     -0.470770
     73 C24         0.6840   -6.1910    1.2720 c3        1 MOL      0.421962
     74 C25         0.1210   -7.4850    1.7360 c3        1 MOL     -0.392994
     75 O14         0.3360   -6.0390   -0.0620 oh        1 MOL     -0.596109
     76 H29        -1.4980   -4.3280    1.1630 hn        1 MOL      0.230981
     77 H30         0.4120   -5.3790    3.2020 h1        1 MOL      0.107376
     78 H31         1.7750   -6.2720    1.3750 h1        1 MOL     -0.009354
     79 H32         0.9800   -5.3760   -0.3440 ho        1 MOL      0.400840
     80 H33        -0.9680   -7.4010    1.7240 hc        1 MOL      0.095074
     81 H34         0.3630   -8.2580    1.0050 hc        1 MOL      0.095074
     82 H35         0.5280   -7.8910    2.6680 hc        1 MOL      0.095074
     83 N9          2.2260   -3.7190    2.5330 n         1 MOL     -0.135855
     84 C26         3.1570   -2.5940    2.4380 c3        1 MOL     -0.093677
     85 C27         4.2420   -2.8280    1.3830 c         1 MOL      0.149883
     86 O15         5.0660   -3.7820    1.5850 o         1 MOL     -0.507710
     87 C28         3.8470   -2.3620    3.8530 c3        1 MOL      0.181616
     88 C29         4.8610   -1.2350    3.6670 c3        1 MOL      0.225791
     89 C30         2.7560   -2.0290    4.8590 c3        1 MOL     -0.390009
     90 C31         5.9870   -1.1770    4.7070 c3        1 MOL     -0.078128
     91 H36         2.3760   -4.3710    3.2900 hn        1 MOL      0.204562
     92 H37         2.6350   -1.6790    2.1370 h1        1 MOL      0.086205
     93 H38         4.3730   -3.2410    4.2210 hc        1 MOL      0.014314
     94 H39         4.3140   -0.2990    3.7110 hc        1 MOL     -0.067007
     95 H40         5.4200   -1.1270    2.7340 hc        1 MOL     -0.067007
     96 H41         3.1950   -1.6770    5.7920 hc        1 MOL      0.092164
     97 H42         1.9740   -1.3310    4.5480 hc        1 MOL      0.092164
     98 H43         2.2520   -2.9410    5.2070 hc        1 MOL      0.092164
     99 H44         5.5320   -1.2130    5.6930 hc        1 MOL     -0.001487
    100 H45         6.5940   -2.0750    4.6250 hc        1 MOL     -0.001487
    101 H46         6.6700   -0.3330    4.6060 hc        1 MOL     -0.001487
    102 N10         4.1620   -2.2070    0.2150 n         1 MOL     -0.025394
    103 C32         4.7640   -2.4590   -1.0750 c3        1 MOL      0.020180
    104 C33         5.5940   -1.2890   -1.7250 c         1 MOL      0.613706
    105 O16         6.0640   -1.3420   -2.8520 o         1 MOL     -0.571025
    106 C34         3.6550   -2.9200   -2.0830 c3        1 MOL     -0.000145
    107 C35         2.5220   -3.7400   -1.5470 c         1 MOL      0.644689
    108 O17         2.7170   -4.8560   -1.0070 o         1 MOL     -0.646646
    109 O18         1.3460   -3.3030   -1.6350 o         1 MOL     -0.646646
    110 H47         3.3740   -1.5870    0.1980 hn        1 MOL      0.100311
    111 H48         5.4390   -3.3090   -0.9290 h1        1 MOL      0.082823
    112 H49         4.1730   -3.4590   -2.8820 hc        1 MOL     -0.034666
    113 H50         3.2040   -2.0160   -2.4890 hc        1 MOL     -0.034666
    114 N11         5.9740   -0.3110   -0.9220 n         1 MOL     -0.627901
    115 C36         6.8330    0.8050   -1.2810 c3        1 MOL      0.363535
    116 C37         6.4850    2.1370   -0.5110 c         1 MOL      0.527832
    117 O19         6.1420    2.0030    0.6380 o         1 MOL     -0.543479
    118 C38         8.3110    0.3780   -1.0520 c3        1 MOL     -0.371378
    119 C39         9.3770    1.3190   -1.5610 ca        1 MOL      0.135788
    120 C40        10.4360    1.8120   -0.7880 ca        1 MOL     -0.112591
    121 C41         9.3640    1.7590   -2.8470 ca        1 MOL     -0.112591
    122 C42        11.3810    2.6910   -1.2690 ca        1 MOL     -0.157895
    123 C43        10.2990    2.6420   -3.4200 ca        1 MOL     -0.157895
    124 C44        11.3440    3.0740   -2.6260 ca        1 MOL     -0.099294
    125 H51         5.3830   -0.1710   -0.1130 hn        1 MOL      0.282139
    126 H52         6.6030    0.8670   -2.3370 h1        1 MOL      0.021871
    127 H53         8.5070   -0.5660   -1.5770 hc        1 MOL      0.144975
    128 H54         8.3510    0.2070    0.0270 hc        1 MOL      0.144975
    129 H55        10.6210    1.4870    0.2290 ha        1 MOL      0.098022
    130 H56         8.6090    1.3990   -3.5350 ha        1 MOL      0.098022
    131 H57        12.2130    3.0620   -0.6810 ha        1 MOL      0.118518
    132 H58        10.1710    2.9850   -4.4380 ha        1 MOL      0.118518
    133 H59        12.0150    3.8110   -3.0270 ha        1 MOL      0.098857
    134 N12         6.3910    3.3370   -1.0990 n         1 MOL     -0.336302
    135 C45         6.3580    4.6180   -0.3180 c3        1 MOL      0.044004
    136 C46         5.0510    4.9310    0.4350 c         1 MOL      0.457256
    137 O20         4.9210    6.0090    0.9450 o         1 MOL     -0.547314
    138 C47         6.7820    5.7190   -1.4440 c3        1 MOL     -0.085742
    139 C48         7.5640    4.9330   -2.4140 c3        1 MOL      0.170971
    140 C49         6.6970    3.6690   -2.4910 c3        1 MOL     -0.358381
    141 H60         7.1160    4.5760    0.4610 h1        1 MOL      0.092816
    142 H61         5.9340    6.1580   -1.9590 hc        1 MOL      0.052102
    143 H62         7.3710    6.5370   -1.0310 hc        1 MOL      0.052102
    144 H63         7.6840    5.4820   -3.3440 hc        1 MOL     -0.001183
    145 H64         8.5420    4.7130   -1.9970 hc        1 MOL     -0.001183
    146 H65         5.7850    4.0230   -2.9750 h1        1 MOL      0.143515
    147 H66         7.1340    2.8740   -3.1090 h1        1 MOL      0.143515
    148 N13         3.9980    4.0450    0.4350 n         1 MOL     -0.341982
    149 C50         2.6780    4.2510    1.0610 c3        1 MOL     -0.100890
    150 C51         2.8150    4.4040    2.5800 c         1 MOL      0.461264
    151 O21         1.7930    4.5680    3.1260 o         1 MOL     -0.497870
    152 C52         1.7350    3.1830    0.5620 c3        1 MOL     -0.232169
    153 C53         2.0380    1.8130    1.1950 c3        1 MOL     -0.242797
    154 C54         1.2420    0.7140    0.5680 c         1 MOL      0.610384
    155 O22         1.8390   -0.2600    0.0480 o         1 MOL     -0.672463
    156 O23        -0.0000    0.7150    0.5680 o         1 MOL     -0.672463
    157 H67         4.0700    3.2460   -0.1780 hn        1 MOL      0.285902
    158 H68         2.3590    5.2290    0.7010 h1        1 MOL      0.140749
    159 H69         1.8390    3.0790   -0.5250 hc        1 MOL      0.130272
    160 H70         0.7480    3.5350    0.8720 hc        1 MOL      0.130272
    161 H71         1.6180    1.8920    2.1990 hc        1 MOL      0.120725
    162 H72         3.0990    1.5930    1.2560 hc        1 MOL      0.120725
    163 N14         3.9770    4.3330    3.1720 n         1 MOL     -0.202971
    164 C55         4.1340    4.4790    4.6520 c3        1 MOL     -0.142840
    165 H73         4.5310    5.4680    4.8790 h1        1 MOL      0.079301
    166 H74         3.1640    4.3580    5.1350 h1        1 MOL      0.079301
    167 H75         4.8210    3.7190    5.0220 h1        1 MOL      0.079301
    168 H76         4.7580    4.0930    2.5870 hn        1 MOL      0.219753
    169 Ca1        -0.3140   -1.4600   -0.9210 Ca        1 MOL      1.757787
    170 O24        -2.4680   -1.4890    0.9940 oh        1 MOL     -0.921020
    171 H77        -2.6350   -0.7680    1.6050 ho        1 MOL      0.440551
    172 H78        -3.3330   -1.8040    0.7450 ho        1 MOL      0.440551
    173 O25         0.7040   -0.8170   -3.1300 oh        1 MOL     -0.921020
    174 H79         0.7060    0.0870   -3.4600 ho        1 MOL      0.440551
    175 H80         1.2710   -1.2980   -3.7320 ho        1 MOL      0.440551
@<TRIPOS>BOND
     1    1    2 1   
     2    1    4 1   
     3    1    5 1   
     4    1    6 1   
     5    2    3 2   
     6    2    7 1   
     7    7    8 1   
     8    7   15 1   
     9    8    9 1   
    10    8   11 1   
    11    8   16 1   
    12    9   10 2   
    13    9   19 1   
    14   11   12 1   
    15   11   17 1   
    16   11   18 1   
    17   12   13 1   
    18   12   14 1   
    19   19   20 1   
    20   19   24 1   
    21   20   21 1   
    22   20   23 1   
    23   20   25 1   
    24   21   22 2   
    25   21   29 1   
    26   23   26 1   
    27   23   27 1   
    28   23   28 1   
    29   29   30 1   
    30   29   37 1   
    31   30   31 1   
    32   30   33 1   
    33   30   38 1   
    34   31   32 2   
    35   31   41 1   
    36   33   34 1   
    37   33   39 1   
    38   33   40 1   
    39   34   35 1   
    40   34   36 1   
    41   41   42 1   
    42   41   45 1   
    43   42   43 1   
    44   42   46 1   
    45   42   47 1   
    46   43   44 2   
    47   43   48 1   
    48   48   49 1   
    49   48   56 1   
    50   49   50 1   
    51   49   52 1   
    52   49   57 1   
    53   50   51 2   
    54   50   62 1   
    55   52   53 1   
    56   52   58 1   
    57   52   59 1   
    58   53   54 1   
    59   53   55 2   
    60   54   60 1   
    61   54   61 1   
    62   62   63 1   
    63   62   66 1   
    64   63   64 1   
    65   63   67 1   
    66   63   68 1   
    67   64   65 2   
    68   64   69 1   
    69   69   70 1   
    70   69   76 1   
    71   70   71 1   
    72   70   73 1   
    73   70   77 1   
    74   71   72 2   
    75   71   83 1   
    76   73   74 1   
    77   73   75 1   
    78   73   78 1   
    79   74   80 1   
    80   74   81 1   
    81   74   82 1   
    82   75   79 1   
    83   83   84 1   
    84   83   91 1   
    85   84   85 1   
    86   84   87 1   
    87   84   92 1   
    88   85   86 2   
    89   85  102 1   
    90   87   88 1   
    91   87   89 1   
    92   87   93 1   
    93   88   90 1   
    94   88   94 1   
    95   88   95 1   
    96   89   96 1   
    97   89   97 1   
    98   89   98 1   
    99   90   99 1   
   100   90  100 1   
   101   90  101 1   
   102  102  103 1   
   103  102  110 1   
   104  103  104 1   
   105  103  106 1   
   106  103  111 1   
   107  104  105 2   
   108  104  114 1   
   109  106  107 1   
   110  106  112 1   
   111  106  113 1   
   112  107  108 1   
   113  107  109 1   
   114  114  115 1   
   115  114  125 1   
   116  115  116 1   
   117  115  118 1   
   118  115  126 1   
   119  116  117 2   
   120  116  134 1   
   121  118  119 1   
   122  118  127 1   
   123  118  128 1   
   124  119  120 ar  
   125  119  121 ar  
   126  120  122 ar  
   127  120  129 1   
   128  121  123 ar  
   129  121  130 1   
   130  122  124 ar  
   131  122  131 1   
   132  123  124 ar  
   133  123  132 1   
   134  124  133 1   
   135  134  135 1   
   136  134  140 1   
   137  135  136 1   
   138  135  138 1   
   139  135  141 1   
   140  136  137 2   
   141  136  148 1   
   142  138  139 1   
   143  138  142 1   
   144  138  143 1   
   145  139  140 1   
   146  139  144 1   
   147  139  145 1   
   148  140  146 1   
   149  140  147 1   
   150  148  149 1   
   151  148  157 1   
   152  149  150 1   
   153  149  152 1   
   154  149  158 1   
   155  150  151 2   
   156  150  163 1   
   157  152  153 1   
   158  152  159 1   
   159  152  160 1   
   160  153  154 1   
   161  153  161 1   
   162  153  162 1   
   163  154  155 1   
   164  154  156 1   
   165  163  164 1   
   166  163  168 1   
   167  164  165 1   
   168  164  166 1   
   169  164  167 1   
   170  170  171 1   
   171  170  172 1   
   172  173  174 1   
   173  173  175 1   
@<TRIPOS>SUBSTRUCTURE
     1 MOL         1 TEMP              0 ****  ****    0 ROOT
