@<TRIPOS>MOLECULE
MOL
  185   180     1     0     0
SMALL
resp


@<TRIPOS>ATOM
      1 C1         -7.4100    3.0530   -0.3390 c3        1 MOL     -0.319898
      2 C2         -8.0060    1.7980    0.2600 c         1 MOL      0.612615
      3 O1         -7.6330    1.2230    1.2620 o         1 MOL     -0.527396
      4 H1         -6.3230    3.0010   -0.2820 hc        1 MOL      0.090317
      5 H2         -7.7140    3.1370   -1.3830 hc        1 MOL      0.090317
      6 H3         -7.7620    3.9230    0.2140 hc        1 MOL      0.090317
      7 N1         -8.9470    1.2700   -0.4080 n         1 MOL     -0.409552
      8 C3         -9.9040    0.3290    0.1160 c3        1 MOL      0.177701
      9 C4         -9.2830   -1.0850    0.4250 c         1 MOL      0.481291
     10 O2         -9.7730   -1.8090    1.3130 o         1 MOL     -0.518863
     11 C5        -10.8800    0.8010    1.1740 c3        1 MOL     -0.222272
     12 C6        -11.7000    2.0470    0.8220 c         1 MOL      0.694448
     13 O3        -11.2300    3.1840    0.7350 o         1 MOL     -0.657140
     14 O4        -12.9140    1.7770    0.4950 o         1 MOL     -0.657140
     15 H4         -9.2150    1.4910   -1.3520 hn        1 MOL      0.274797
     16 H5        -10.5470    0.0930   -0.7310 h1        1 MOL      0.008337
     17 H6        -10.3780    1.0980    2.0890 hc        1 MOL      0.064676
     18 H7        -11.4250   -0.0990    1.4640 hc        1 MOL      0.064676
     19 N2         -8.2210   -1.4570   -0.2770 n         1 MOL     -0.489669
     20 C7         -7.4220   -2.6340   -0.1080 c3        1 MOL      0.351427
     21 C8         -5.9180   -2.4320    0.1070 c         1 MOL      0.269326
     22 O5         -5.1490   -3.4190   -0.0410 o         1 MOL     -0.516189
     23 C9         -7.7880   -3.4370   -1.3630 c3        1 MOL     -0.176280
     24 C10        -7.4970   -4.9480   -1.1600 c3        1 MOL      0.031312
     25 C11        -7.5110   -5.7650   -2.4660 c3        1 MOL     -0.032675
     26 C12        -8.8170   -5.7870   -3.2330 c3        1 MOL      0.049692
     27 N3         -8.9060   -6.8980   -4.1790 n4        1 MOL     -0.292117
     28 H8         -7.8620   -0.7110   -0.8470 hn        1 MOL      0.156912
     29 H9         -7.7690   -3.0510    0.8380 h1        1 MOL      0.045880
     30 H10        -7.1440   -3.0870   -2.1630 hc        1 MOL      0.033701
     31 H11        -8.8130   -3.3130   -1.7070 hc        1 MOL      0.033701
     32 H12        -8.1940   -5.3010   -0.3970 hc        1 MOL      0.026005
     33 H13        -6.5080   -5.0960   -0.7260 hc        1 MOL      0.026005
     34 H14        -7.2090   -6.7650   -2.1560 hc        1 MOL      0.032371
     35 H15        -6.6930   -5.4700   -3.1210 hc        1 MOL      0.032371
     36 H16        -8.9380   -4.8820   -3.8210 hx        1 MOL      0.071467
     37 H17        -9.6690   -5.8830   -2.5530 hx        1 MOL      0.071467
     38 H18        -8.8430   -7.7960   -3.7130 hn        1 MOL      0.251402
     39 H19        -9.7340   -6.8380   -4.7460 hn        1 MOL      0.251402
     40 H20        -8.2480   -6.7100   -4.9150 hn        1 MOL      0.251402
     41 N4         -5.5160   -1.2550    0.5200 n         1 MOL     -0.112874
     42 C13        -4.1420   -0.9220    0.7800 c3        1 MOL     -0.090016
     43 C14        -3.9490   -0.7440    2.2290 c         1 MOL      0.567134
     44 O6         -4.7370    0.0600    2.7660 o         1 MOL     -0.531259
     45 C15        -3.6360    0.1680   -0.0210 c3        1 MOL     -0.028536
     46 C16        -2.1370    0.4810    0.0570 c         1 MOL      0.740668
     47 O7         -1.4180   -0.2030    0.8250 o         1 MOL     -0.782453
     48 O8         -1.5030    1.1920   -0.7610 o         1 MOL     -0.782453
     49 H21        -6.1600   -0.5140    0.7660 hn        1 MOL      0.194410
     50 H22        -3.5590   -1.7760    0.4270 h1        1 MOL      0.075677
     51 H23        -4.2140    1.0380    0.3050 hc        1 MOL     -0.001300
     52 H24        -3.9610    0.0840   -1.0510 hc        1 MOL     -0.001300
     53 N5         -2.8940   -1.3490    2.7600 n         1 MOL     -0.365177
     54 C17        -2.5780   -1.3200    4.2000 c3        1 MOL     -0.167173
     55 C18        -1.6220   -0.2060    4.6530 c         1 MOL      0.585255
     56 O9         -1.4950   -0.0340    5.8900 o         1 MOL     -0.550004
     57 H25        -2.1890   -1.7470    2.1510 hn        1 MOL      0.279465
     58 H26        -2.0100   -2.2170    4.4830 h1        1 MOL      0.113009
     59 H27        -3.4870   -1.2530    4.7830 h1        1 MOL      0.113009
     60 N6         -0.9860    0.4840    3.6610 n         1 MOL     -0.470986
     61 C19        -0.1470    1.6120    4.0300 c3        1 MOL     -0.060307
     62 C20        -0.2360    2.8550    3.0470 c         1 MOL      0.530850
     63 O10         0.5510    3.7690    3.1190 o         1 MOL     -0.532299
     64 C21         1.2810    0.9910    4.0800 c3        1 MOL     -0.319973
     65 C22         1.9310    0.5560    2.7010 c         1 MOL      0.797233
     66 N7          3.1380    0.2060    2.7170 n         1 MOL     -0.669975
     67 O11         1.2860    0.3600    1.7030 o         1 MOL     -0.852384
     68 H28        -1.0410    0.1180    2.7220 hn        1 MOL      0.454209
     69 H29        -0.3810    2.0140    5.0110 h1        1 MOL      0.140991
     70 H30         1.3400    0.1760    4.7990 hc        1 MOL      0.107107
     71 H31         1.9940    1.7750    4.3140 hc        1 MOL      0.107107
     72 H32         3.7910    0.2860    3.4780 hn        1 MOL      0.316344
     73 H33         3.5830    0.0210    1.8350 hn        1 MOL      0.316344
     74 N8         -1.2890    2.8440    2.2710 n         1 MOL     -0.262471
     75 C23        -1.6310    3.9530    1.3350 c3        1 MOL     -0.090741
     76 C24        -0.5230    4.5050    0.4270 c         1 MOL      0.575574
     77 O12        -0.2140    5.6700    0.5230 o         1 MOL     -0.513042
     78 H34        -1.8970    2.0390    2.3190 hn        1 MOL      0.192199
     79 H35        -1.9250    4.8340    1.9050 h1        1 MOL      0.089043
     80 H36        -2.4350    3.6530    0.6510 h1        1 MOL      0.089043
     81 N9          0.1690    3.6740   -0.3150 n         1 MOL     -0.359820
     82 C25         1.4660    3.9340   -1.0210 c3        1 MOL      0.081696
     83 C26         2.3670    2.6770   -1.0420 c         1 MOL      0.551153
     84 O13         1.9540    1.5340   -0.8320 o         1 MOL     -0.354704
     85 C27         1.0960    4.4430   -2.4090 c3        1 MOL     -0.103122
     86 C28         0.4610    5.8100   -2.3920 ca        1 MOL     -0.008062
     87 C29         1.1340    7.0120   -2.2040 ca        1 MOL     -0.070101
     88 C30        -0.8410    5.9010   -2.9510 ca        1 MOL     -0.070101
     89 C31         0.5050    8.2770   -2.3690 ca        1 MOL     -0.415272
     90 C32        -1.4830    7.1180   -3.1940 ca        1 MOL     -0.415272
     91 C33        -0.8220    8.3080   -2.7780 ca        1 MOL      0.516190
     92 O14        -1.4130    9.4670   -2.8380 oh        1 MOL     -0.483302
     93 H37        -0.0970    2.7020   -0.2270 hn        1 MOL      0.192625
     94 H38         2.0620    4.6990   -0.5370 h1        1 MOL      0.049184
     95 H39         0.3730    3.7670   -2.8550 hc        1 MOL      0.053001
     96 H40         1.9450    4.5370   -3.0790 hc        1 MOL      0.053001
     97 H41         2.1670    6.9050   -1.8970 ha        1 MOL      0.108455
     98 H42        -1.3890    5.0390   -3.3040 ha        1 MOL      0.108455
     99 H43         0.9580    9.2280   -2.1300 ha        1 MOL      0.189591
    100 H44        -2.5070    7.1890   -3.5290 ha        1 MOL      0.189591
    101 H45        -0.7680   10.1800   -2.8210 ho        1 MOL      0.348447
    102 N10         3.6330    2.8240   -1.4410 n         1 MOL     -0.617248
    103 C34         4.5360    1.6770   -1.6500 c3        1 MOL      0.038450
    104 C35         5.3180    1.4140   -0.3530 c         1 MOL      0.340406
    105 O15         5.3100    0.2390    0.1690 o         1 MOL     -0.435206
    106 C36         5.4590    1.8060   -2.8980 c3        1 MOL      0.407770
    107 C37         4.5960    2.1000   -4.1470 c3        1 MOL     -0.016306
    108 C38         6.5640    0.7310   -3.0530 c3        1 MOL     -0.265148
    109 C39         4.1030    0.7230   -4.8220 c3        1 MOL     -0.110157
    110 H46         3.9760    3.7550   -1.5900 hn        1 MOL      0.306116
    111 H47         3.9310    0.8030   -1.8930 h1        1 MOL      0.003913
    112 H48         6.0530    2.7040   -2.7050 hc        1 MOL     -0.130628
    113 H49         5.2890    2.6280   -4.7970 hc        1 MOL      0.001086
    114 H50         3.7030    2.6880   -3.9430 hc        1 MOL      0.001086
    115 H51         7.1090    0.9050   -3.9850 hc        1 MOL      0.068097
    116 H52         7.2660    0.8610   -2.2240 hc        1 MOL      0.068097
    117 H53         6.1580   -0.2790   -3.0350 hc        1 MOL      0.068097
    118 H54         3.2650    0.9920   -5.4730 hc        1 MOL      0.029069
    119 H55         4.9190    0.2730   -5.3900 hc        1 MOL      0.029069
    120 H56         3.7440    0.0580   -4.0430 hc        1 MOL      0.029069
    121 N11         6.0310    2.3450    0.2230 n         1 MOL     -0.206397
    122 C40         6.8090    2.2780    1.4660 c3        1 MOL     -0.194335
    123 C41         7.8780    1.1360    1.4980 c         1 MOL      0.619954
    124 O16         8.1850    0.6670    2.5680 o         1 MOL     -0.502520
    125 C42         7.4610    3.6520    1.6650 c3        1 MOL      0.100622
    126 O17         8.1480    3.9640    0.5280 oh        1 MOL     -0.627350
    127 H57         5.9430    3.2790   -0.1690 hn        1 MOL      0.286323
    128 H58         6.0830    2.0920    2.2680 h1        1 MOL      0.119313
    129 H59         8.0990    3.5520    2.5520 h1        1 MOL      0.066279
    130 H60         6.7230    4.4470    1.8210 h1        1 MOL      0.066279
    131 H61         8.4710    4.8580    0.6200 ho        1 MOL      0.440169
    132 N12         8.3630    0.6360    0.3550 n         1 MOL     -0.310099
    133 C43         9.1620   -0.5800    0.2490 c3        1 MOL      0.195992
    134 C44         8.4470   -1.8510    0.9170 c         1 MOL      0.425562
    135 O18         9.0750   -2.6900    1.5710 o         1 MOL     -0.519423
    136 C45        10.6900   -0.4450    0.6370 c3        1 MOL     -0.294921
    137 H62         8.3420    1.1650   -0.5130 hn        1 MOL      0.208848
    138 H63         9.0930   -0.8300   -0.8070 h1        1 MOL      0.026961
    139 H64        11.1740    0.2330   -0.0720 hc        1 MOL      0.088915
    140 H65        10.8320   -0.1020    1.6610 hc        1 MOL      0.088915
    141 H66        11.2000   -1.3940    0.5080 hc        1 MOL      0.088915
    142 N13         7.1310   -1.9920    0.8030 n         1 MOL     -0.283673
    143 C46         6.2960   -3.0200    1.3310 c3        1 MOL      0.265556
    144 C47         5.5150   -3.7130    0.2890 c         1 MOL      0.371267
    145 O19         5.3370   -3.2600   -0.8220 o         1 MOL     -0.470241
    146 C48         5.4300   -2.4170    2.4090 c3        1 MOL     -0.216134
    147 H67         6.6640   -1.2190    0.3400 hn        1 MOL      0.022978
    148 H68         6.9230   -3.7980    1.7530 h1        1 MOL      0.011989
    149 H69         4.5890   -1.8270    2.0630 hc        1 MOL      0.058616
    150 H70         5.0260   -3.1890    3.0660 hc        1 MOL      0.058616
    151 H71         6.0440   -1.7460    3.0140 hc        1 MOL      0.058616
    152 N14         4.9260   -4.8460    0.7050 n         1 MOL     -0.373405
    153 C49         4.1040   -5.7630   -0.1010 c3        1 MOL     -0.154605
    154 C50         4.8420   -6.3750   -1.3670 c         1 MOL      0.405697
    155 O20         4.1170   -6.8840   -2.2870 o         1 MOL     -0.491098
    156 C51         2.7360   -5.0940   -0.4540 c3        1 MOL      0.433601
    157 C52         1.8420   -4.8890    0.7500 c3        1 MOL     -0.322096
    158 C53         0.5600   -4.1010    0.5230 c         1 MOL      0.658763
    159 O21         0.4680   -2.8320    0.5790 o         1 MOL     -0.654976
    160 O22        -0.4550   -4.7540    0.1360 o         1 MOL     -0.654976
    161 H72         5.0400   -5.1710    1.6450 hn        1 MOL      0.282873
    162 H73         3.8030   -6.5390    0.6070 h1        1 MOL      0.097851
    163 H74         2.2060   -5.8340   -1.0500 hc        1 MOL     -0.071274
    164 H75         2.9400   -4.2880   -1.1610 hc        1 MOL     -0.071274
    165 H76         2.4620   -4.3000    1.4340 hc        1 MOL      0.040887
    166 H77         1.7690   -5.8410    1.2710 hc        1 MOL      0.040887
    167 N15         6.1580   -6.4120   -1.3560 n         1 MOL     -0.286125
    168 C54         6.9290   -6.5260   -2.5960 c3        1 MOL     -0.056684
    169 H78         7.9330   -6.8820   -2.3670 h1        1 MOL      0.068486
    170 H79         6.4380   -7.2320   -3.2660 h1        1 MOL      0.068486
    171 H80         6.9910   -5.5500   -3.0780 h1        1 MOL      0.068486
    172 H81         6.6400   -6.2230   -0.4810 hn        1 MOL      0.249456
    173 Ca1         0.5740   -0.6430   -0.6450 Ca        1 MOL      1.774774
    174 O23        -1.8050   -2.0560   -1.5880 oh        1 MOL     -0.887228
    175 H82        -2.2060   -2.9290   -1.6340 ho        1 MOL      0.432029
    176 H83        -2.4050   -1.4850   -2.0700 ho        1 MOL      0.432029
    177 O24         1.1360   -2.6630   -2.2460 oh        1 MOL     -0.887228
    178 H84         0.4750   -3.2790   -2.5760 ho        1 MOL      0.432029
    179 H85         1.9500   -2.9300   -2.6770 ho        1 MOL      0.432029
    180 O25         0.2350    0.3990   -3.0550 oh        1 MOL     -0.887228
    181 H86         0.0720    1.2480   -3.4760 ho        1 MOL      0.432029
    182 H87        -0.0660   -0.2480   -3.6920 ho        1 MOL      0.432029
    183 O26         3.1660   -1.3230   -0.2280 oh        1 MOL     -0.887228
    184 H88         3.6820   -2.1270   -0.3120 ho        1 MOL      0.432029
    185 H89         3.7980   -0.6370   -0.0290 ho        1 MOL      0.432029
@<TRIPOS>BOND
     1    1    2 1   
     2    1    4 1   
     3    1    5 1   
     4    1    6 1   
     5    2    3 2   
     6    2    7 1   
     7    7    8 1   
     8    7   15 1   
     9    8    9 1   
    10    8   11 1   
    11    8   16 1   
    12    9   10 2   
    13    9   19 1   
    14   11   12 1   
    15   11   17 1   
    16   11   18 1   
    17   12   13 1   
    18   12   14 1   
    19   19   20 1   
    20   19   28 1   
    21   20   21 1   
    22   20   23 1   
    23   20   29 1   
    24   21   22 2   
    25   21   41 1   
    26   23   24 1   
    27   23   30 1   
    28   23   31 1   
    29   24   25 1   
    30   24   32 1   
    31   24   33 1   
    32   25   26 1   
    33   25   34 1   
    34   25   35 1   
    35   26   27 1   
    36   26   36 1   
    37   26   37 1   
    38   27   38 1   
    39   27   39 1   
    40   27   40 1   
    41   41   42 1   
    42   41   49 1   
    43   42   43 1   
    44   42   45 1   
    45   42   50 1   
    46   43   44 2   
    47   43   53 1   
    48   45   46 1   
    49   45   51 1   
    50   45   52 1   
    51   46   47 1   
    52   46   48 1   
    53   53   54 1   
    54   53   57 1   
    55   54   55 1   
    56   54   58 1   
    57   54   59 1   
    58   55   56 2   
    59   55   60 1   
    60   60   61 1   
    61   60   68 1   
    62   61   62 1   
    63   61   64 1   
    64   61   69 1   
    65   62   63 2   
    66   62   74 1   
    67   64   65 1   
    68   64   70 1   
    69   64   71 1   
    70   65   66 1   
    71   65   67 2   
    72   66   72 1   
    73   66   73 1   
    74   74   75 1   
    75   74   78 1   
    76   75   76 1   
    77   75   79 1   
    78   75   80 1   
    79   76   77 2   
    80   76   81 1   
    81   81   82 1   
    82   81   93 1   
    83   82   83 1   
    84   82   85 1   
    85   82   94 1   
    86   83   84 2   
    87   83  102 1   
    88   85   86 1   
    89   85   95 1   
    90   85   96 1   
    91   86   87 ar  
    92   86   88 ar  
    93   87   89 ar  
    94   87   97 1   
    95   88   90 ar  
    96   88   98 1   
    97   89   91 ar  
    98   89   99 1   
    99   90   91 ar  
   100   90  100 1   
   101   91   92 1   
   102   92  101 1   
   103  102  103 1   
   104  102  110 1   
   105  103  104 1   
   106  103  106 1   
   107  103  111 1   
   108  104  105 2   
   109  104  121 1   
   110  106  107 1   
   111  106  108 1   
   112  106  112 1   
   113  107  109 1   
   114  107  113 1   
   115  107  114 1   
   116  108  115 1   
   117  108  116 1   
   118  108  117 1   
   119  109  118 1   
   120  109  119 1   
   121  109  120 1   
   122  121  122 1   
   123  121  127 1   
   124  122  123 1   
   125  122  125 1   
   126  122  128 1   
   127  123  124 2   
   128  123  132 1   
   129  125  126 1   
   130  125  129 1   
   131  125  130 1   
   132  126  131 1   
   133  132  133 1   
   134  132  137 1   
   135  133  134 1   
   136  133  136 1   
   137  133  138 1   
   138  134  135 2   
   139  134  142 1   
   140  136  139 1   
   141  136  140 1   
   142  136  141 1   
   143  142  143 1   
   144  142  147 1   
   145  143  144 1   
   146  143  146 1   
   147  143  148 1   
   148  144  145 2   
   149  144  152 1   
   150  146  149 1   
   151  146  150 1   
   152  146  151 1   
   153  152  153 1   
   154  152  161 1   
   155  153  154 1   
   156  153  156 1   
   157  153  162 1   
   158  154  155 2   
   159  154  167 1   
   160  156  157 1   
   161  156  163 1   
   162  156  164 1   
   163  157  158 1   
   164  157  165 1   
   165  157  166 1   
   166  158  159 1   
   167  158  160 1   
   168  167  168 1   
   169  167  172 1   
   170  168  169 1   
   171  168  170 1   
   172  168  171 1   
   173  174  175 1   
   174  174  176 1   
   175  177  178 1   
   176  177  179 1   
   177  180  181 1   
   178  180  182 1   
   179  183  184 1   
   180  183  185 1   
@<TRIPOS>SUBSTRUCTURE
     1 MOL         1 TEMP              0 ****  ****    0 ROOT
