@<TRIPOS>MOLECULE
MOL
  189   185     1     0     0
SMALL
resp


@<TRIPOS>ATOM
      1 C1          9.5150    1.2910    0.9450 c3        1 MOL     -0.500103
      2 C2          8.3210    0.7110    0.1910 c         1 MOL      0.705885
      3 O1          7.2400    0.6730    0.7700 o         1 MOL     -0.657578
      4 H1         10.2730    0.5180    1.0730 hc        1 MOL      0.131811
      5 H2          9.9350    2.1210    0.3770 hc        1 MOL      0.131811
      6 H3          9.1900    1.6460    1.9230 hc        1 MOL      0.131811
      7 N1          8.4350    0.2300   -1.0680 n         1 MOL     -0.381828
      8 C3          7.3500   -0.4150   -1.8420 c3        1 MOL     -0.211645
      9 C4          6.8580   -1.8700   -1.4430 c         1 MOL      0.623597
     10 O2          6.7590   -2.7240   -2.2780 o         1 MOL     -0.452319
     11 C5          7.7530   -0.3920   -3.3190 c3        1 MOL     -0.072659
     12 C6          9.0640   -1.0910   -3.6880 c         1 MOL      0.651901
     13 O3          9.1130   -1.9720   -4.5720 o         1 MOL     -0.626046
     14 O4         10.1560   -0.7310   -3.1140 o         1 MOL     -0.626046
     15 H4          9.3350    0.1560   -1.5260 hn        1 MOL      0.170826
     16 H5          6.5280    0.3010   -1.7150 h1        1 MOL      0.132598
     17 H6          7.8010    0.6650   -3.5950 hc        1 MOL      0.044812
     18 H7          6.9650   -0.7230   -4.0040 hc        1 MOL      0.044812
     19 N2          6.5320   -2.0480   -0.1510 n         1 MOL     -0.330927
     20 C7          6.1920   -3.3000    0.4310 c3        1 MOL      0.055211
     21 C8          4.7030   -3.7360    0.2920 c         1 MOL      0.431008
     22 O5          4.4570   -4.8500   -0.2160 o         1 MOL     -0.530701
     23 C9          6.7110   -3.4330    1.8870 c3        1 MOL      0.034808
     24 C10         8.2140   -3.2310    2.0270 c3        1 MOL      0.024125
     25 C11         8.7460   -3.5240    3.4570 c3        1 MOL      0.048429
     26 C12        10.2230   -3.1240    3.3800 c3        1 MOL      0.061430
     27 N3         10.7890   -3.0480    4.7670 n4        1 MOL     -0.384971
     28 H8          6.4870   -1.2090    0.4030 hn        1 MOL      0.224158
     29 H9          6.7180   -4.0610   -0.1500 h1        1 MOL      0.063349
     30 H10         6.4660   -4.4520    2.1860 hc        1 MOL     -0.012738
     31 H11         6.1340   -2.8100    2.5760 hc        1 MOL     -0.012738
     32 H12         8.3830   -2.1900    1.7450 hc        1 MOL     -0.010427
     33 H13         8.7310   -3.7970    1.2600 hc        1 MOL     -0.010427
     34 H14         8.5820   -4.5730    3.7080 hc        1 MOL      0.012163
     35 H15         8.2230   -2.8760    4.1590 hc        1 MOL      0.012163
     36 H16        10.4500   -2.1680    2.8980 hx        1 MOL      0.079990
     37 H17        10.7170   -3.9520    2.8670 hx        1 MOL      0.079990
     38 H18        10.8590   -3.9870    5.1460 hn        1 MOL      0.284133
     39 H19        11.6910   -2.5900    4.6720 hn        1 MOL      0.284133
     40 H20        10.1980   -2.4620    5.3390 hn        1 MOL      0.284133
     41 N4          3.7260   -2.8990    0.5360 n         1 MOL     -0.316693
     42 C13         3.7480   -1.5030    1.0150 c3        1 MOL     -0.012319
     43 C14         3.6760   -0.4630   -0.1650 c         1 MOL      0.130522
     44 O6          3.1960   -0.7670   -1.1800 o         1 MOL     -0.315473
     45 C15         2.6530   -1.3130    2.1170 c3        1 MOL     -0.311672
     46 C16         1.2930   -1.7780    1.8210 c         1 MOL      0.865266
     47 O7          0.5730   -1.1400    1.0560 o         1 MOL     -0.717810
     48 O8          0.9020   -2.7970    2.3940 o         1 MOL     -0.717810
     49 H21         2.8200   -3.2760    0.2880 hn        1 MOL      0.300508
     50 H22         4.6380   -1.2610    1.5890 h1        1 MOL      0.144619
     51 H23         2.6140   -0.2600    2.4130 hc        1 MOL      0.052504
     52 H24         2.9460   -1.8200    3.0330 hc        1 MOL      0.052504
     53 N5          4.2420    0.7330   -0.0190 n         1 MOL     -0.206651
     54 C17         4.1750    1.8110   -1.0320 c3        1 MOL     -0.140483
     55 C18         2.7780    2.3620   -1.3080 c         1 MOL      0.540020
     56 O9          1.7430    1.9060   -0.7880 o         1 MOL     -0.555378
     57 H25         4.8400    0.9260    0.7620 hn        1 MOL      0.249658
     58 H26         4.4260    1.4110   -2.0180 h1        1 MOL      0.110164
     59 H27         4.8620    2.6280   -0.8220 h1        1 MOL      0.110164
     60 N6          2.7710    3.2840   -2.3140 n         1 MOL     -0.398504
     61 C19         1.6160    4.0390   -2.8540 c3        1 MOL      0.171549
     62 C20         2.0980    5.4320   -3.2430 c         1 MOL      0.495667
     63 O10         3.2940    5.6190   -3.2510 o         1 MOL     -0.536360
     64 C21         1.1200    3.2320   -4.0980 c3        1 MOL     -0.374285
     65 C22         0.8320    1.6850   -3.9830 c         1 MOL      0.635464
     66 O11        -0.0200    1.2490   -3.1300 o         1 MOL     -0.625930
     67 O12         1.5020    0.9210   -4.7050 o         1 MOL     -0.625930
     68 H28         3.6410    3.5970   -2.7250 hn        1 MOL      0.274498
     69 H29         0.8860    4.2220   -2.0640 h1        1 MOL      0.052871
     70 H30         1.9720    3.3320   -4.7710 hc        1 MOL      0.102313
     71 H31         0.2800    3.6930   -4.6190 hc        1 MOL      0.102313
     72 N7          1.2660    6.4380   -3.4090 n         1 MOL     -0.454480
     73 C23        -0.1430    6.4800   -3.1520 c3        1 MOL     -0.033661
     74 C24        -0.6460    6.2260   -1.7180 c         1 MOL      0.579888
     75 O13         0.0190    6.6170   -0.7290 o         1 MOL     -0.518769
     76 H32         1.7010    7.3480   -3.4730 hn        1 MOL      0.323706
     77 H33        -0.5260    5.6710   -3.7720 h1        1 MOL      0.064390
     78 H34        -0.6200    7.4120   -3.4630 h1        1 MOL      0.064390
     79 N8         -1.7590    5.4650   -1.6500 n         1 MOL     -0.568830
     80 C25        -2.4060    5.0570   -0.4090 c3        1 MOL     -0.085471
     81 C26        -1.6460    3.9640    0.3420 c         1 MOL      1.148746
     82 O14        -1.0840    3.0520   -0.2440 o         1 MOL     -0.821129
     83 C27        -3.8480    4.5660   -0.7430 c3        1 MOL      0.361245
     84 C28        -4.8120    4.1950    0.4070 c3        1 MOL     -0.370664
     85 O15        -3.8570    3.4720   -1.6170 oh        1 MOL     -0.649254
     86 H35        -2.1340    5.2820   -2.5670 hn        1 MOL      0.316150
     87 H36        -2.4290    5.8800    0.3020 h1        1 MOL      0.049489
     88 H37        -4.3780    5.3760   -1.2390 h1        1 MOL      0.020359
     89 H38        -4.6680    3.5380   -2.1070 ho        1 MOL      0.425756
     90 H39        -4.2870    3.7660    1.2630 hc        1 MOL      0.081880
     91 H40        -5.3800    5.1030    0.5890 hc        1 MOL      0.081880
     92 H41        -5.4250    3.3270    0.1700 hc        1 MOL      0.081880
     93 N9         -1.5550    4.1000    1.6260 n         1 MOL     -0.624292
     94 C29        -0.8720    3.2750    2.6430 c3        1 MOL      0.069549
     95 C30        -1.5100    1.8790    2.6990 c         1 MOL      0.533599
     96 O16        -1.4140    1.1950    1.6460 o         1 MOL     -0.561789
     97 C31         0.6710    3.3900    2.5080 c3        1 MOL      0.255242
     98 C32         1.3470    4.7880    2.3920 c3        1 MOL      0.073934
     99 C33         1.1950    2.5490    3.7050 c3        1 MOL     -0.480023
    100 C34         1.3190    5.5600    3.7170 c3        1 MOL     -0.250611
    101 H42        -2.1610    4.7940    2.0500 hn        1 MOL      0.254550
    102 H43        -1.0420    3.6800    3.6470 h1        1 MOL      0.015170
    103 H44         0.9280    2.8290    1.6030 hc        1 MOL     -0.093996
    104 H45         0.7750    5.3040    1.6180 hc        1 MOL      0.014758
    105 H46         2.3450    4.6800    1.9500 hc        1 MOL      0.014758
    106 H47         0.8330    1.5360    3.5670 hc        1 MOL      0.123084
    107 H48         2.2830    2.6290    3.7070 hc        1 MOL      0.123084
    108 H49         0.7780    2.9480    4.6210 hc        1 MOL      0.123084
    109 H50         0.2810    5.7450    4.0000 hc        1 MOL      0.057083
    110 H51         1.8830    5.0110    4.4780 hc        1 MOL      0.057083
    111 H52         1.7140    6.5600    3.5600 hc        1 MOL      0.057083
    112 N10        -1.9770    1.3720    3.8790 n         1 MOL     -0.519761
    113 C35        -2.4820   -0.0320    4.0670 c3        1 MOL     -0.072920
    114 C36        -3.7880   -0.4830    3.3500 c         1 MOL      0.377027
    115 O17        -3.9520   -1.7310    3.2480 o         1 MOL     -0.473720
    116 C37        -2.4270   -0.5070    5.5670 c3        1 MOL      0.418478
    117 C38        -3.5230    0.0260    6.5100 c3        1 MOL     -0.274529
    118 O18        -1.1410   -0.1800    6.2050 oh        1 MOL     -0.624466
    119 H53        -1.9890    2.0260    4.6410 hn        1 MOL      0.311354
    120 H54        -1.7530   -0.6020    3.4830 h1        1 MOL      0.130566
    121 H55        -2.4700   -1.5950    5.5790 h1        1 MOL      0.004526
    122 H56        -0.4990   -0.7890    5.8270 ho        1 MOL      0.398709
    123 H57        -3.4130   -0.3470    7.5270 hc        1 MOL      0.076656
    124 H58        -3.4070    1.1040    6.5900 hc        1 MOL      0.076656
    125 H59        -4.5470   -0.1590    6.1790 hc        1 MOL      0.076656
    126 N11        -4.7360    0.3780    3.0040 n         1 MOL     -0.254607
    127 C39        -6.0830    0.0170    2.4720 c3        1 MOL     -0.092820
    128 C40        -6.1830   -0.5030    1.0440 c         1 MOL      0.530982
    129 O19        -5.4390   -0.0290    0.1020 o         1 MOL     -0.527409
    130 C41        -6.8780    1.3340    2.5700 c3        1 MOL      0.437433
    131 C42        -8.2670    1.3600    1.9000 c3        1 MOL     -0.231232
    132 O20        -6.9030    1.7730    3.9090 oh        1 MOL     -0.600891
    133 H60        -4.5680    1.3650    3.1160 hn        1 MOL      0.228805
    134 H61        -6.5540   -0.7140    3.1310 h1        1 MOL      0.090730
    135 H62        -6.3780    2.0860    1.9570 h1        1 MOL     -0.038932
    136 H63        -6.1430    2.3570    3.9260 ho        1 MOL      0.350387
    137 H64        -8.1310    1.0560    0.8620 hc        1 MOL      0.057363
    138 H65        -8.9090    0.5900    2.3220 hc        1 MOL      0.057363
    139 H66        -8.7910    2.3140    1.9330 hc        1 MOL      0.057363
    140 N12        -6.9000   -1.6100    0.8180 n         1 MOL     -0.478617
    141 C43        -7.1880   -2.4690   -0.2990 c3        1 MOL      0.055527
    142 C44        -5.9090   -2.6530   -1.0770 c         1 MOL      0.531034
    143 O21        -5.7700   -2.1550   -2.1820 o         1 MOL     -0.518976
    144 C45        -8.4350   -2.0370   -1.0170 c3        1 MOL     -0.042421
    145 C46        -9.0370   -3.2170   -1.8060 c3        1 MOL     -0.105851
    146 C47       -10.1520   -2.8750   -2.8550 c3        1 MOL      0.197284
    147 C48       -11.3030   -2.1810   -2.1510 c3        1 MOL      0.035210
    148 N13       -12.3260   -1.7590   -3.0940 n4        1 MOL     -0.149457
    149 H67        -7.1930   -2.0570    1.6770 hn        1 MOL      0.277077
    150 H68        -7.2890   -3.4210    0.2220 h1        1 MOL      0.042376
    151 H69        -8.2070   -1.2140   -1.7000 hc        1 MOL      0.047254
    152 H70        -9.2400   -1.7280   -0.3610 hc        1 MOL      0.047254
    153 H71        -9.4920   -3.9720   -1.1720 hc        1 MOL      0.032357
    154 H72        -8.2000   -3.6210   -2.3730 hc        1 MOL      0.032357
    155 H73       -10.5230   -3.8150   -3.2810 hc        1 MOL     -0.006801
    156 H74        -9.6910   -2.2330   -3.6130 hc        1 MOL     -0.006801
    157 H75       -10.8820   -1.2120   -1.8590 hx        1 MOL      0.031428
    158 H76       -11.7580   -2.8380   -1.4120 hx        1 MOL      0.031428
    159 H77       -12.0950   -0.9190   -3.5990 hn        1 MOL      0.191325
    160 H78       -12.5400   -2.4780   -3.7710 hn        1 MOL      0.191325
    161 H79       -13.0720   -1.4540   -2.4760 hn        1 MOL      0.191325
    162 N14        -4.8920   -3.2760   -0.4130 n         1 MOL     -0.595985
    163 C49        -3.4710   -3.2490   -0.9360 c3        1 MOL      0.495812
    164 C50        -2.4490   -2.5970    0.0290 c         1 MOL      0.165190
    165 O22        -2.3190   -1.3540    0.0370 o         1 MOL     -0.348149
    166 C51        -3.1010   -4.6260   -1.5610 c3        1 MOL      0.083810
    167 C52        -3.8120   -4.9120   -2.9250 c3        1 MOL     -0.134551
    168 C53        -3.5050   -6.2330   -3.5610 c         1 MOL      0.659734
    169 O23        -4.4320   -7.0990   -3.6840 o         1 MOL     -0.618756
    170 O24        -2.3410   -6.4690   -3.9570 o         1 MOL     -0.618756
    171 H80        -5.0360   -3.6320    0.5230 hn        1 MOL      0.328193
    172 H81        -3.4480   -2.4840   -1.7160 h1        1 MOL      0.022040
    173 H82        -3.5420   -5.3710   -0.8860 hc        1 MOL     -0.038941
    174 H83        -2.0500   -4.5690   -1.8320 hc        1 MOL     -0.038941
    175 H84        -3.4910   -4.1500   -3.6250 hc        1 MOL      0.016122
    176 H85        -4.8940   -5.0030   -2.7990 hc        1 MOL      0.016122
    177 N15        -1.6090   -3.2260    0.8970 n         1 MOL     -0.328130
    178 C54        -1.7810   -4.5780    1.5010 c3        1 MOL     -0.004372
    179 H86        -0.9240   -4.8020    2.1360 h1        1 MOL      0.035746
    180 H87        -2.6910   -4.5960    2.1000 h1        1 MOL      0.035746
    181 H88        -1.8510   -5.3240    0.7100 h1        1 MOL      0.035746
    182 H89        -0.9210   -2.6540    1.3710 hn        1 MOL      0.295159
    183 Ca1        -0.3910    0.5160   -0.6380 Ca        1 MOL      1.807533
    184 O25        -2.9930    0.8650   -1.1310 oh        1 MOL     -1.079270
    185 H90        -3.7680    0.3360   -0.9360 ho        1 MOL      0.492667
    186 H91        -3.3290    1.7430   -1.2800 ho        1 MOL      0.492667
    187 O26         0.1560   -1.4930   -2.2010 oh        1 MOL     -1.079270
    188 H92         0.4540   -2.3530   -1.9050 ho        1 MOL      0.492667
    189 H93         0.2920   -1.5100   -3.1480 ho        1 MOL      0.492667
@<TRIPOS>BOND
     1    1    2 1   
     2    1    4 1   
     3    1    5 1   
     4    1    6 1   
     5    2    3 2   
     6    2    7 1   
     7    7    8 1   
     8    7   15 1   
     9    8    9 1   
    10    8   11 1   
    11    8   16 1   
    12    9   10 2   
    13    9   19 1   
    14   11   12 1   
    15   11   17 1   
    16   11   18 1   
    17   12   13 1   
    18   12   14 1   
    19   19   20 1   
    20   19   28 1   
    21   20   21 1   
    22   20   23 1   
    23   20   29 1   
    24   21   22 2   
    25   21   41 1   
    26   23   24 1   
    27   23   30 1   
    28   23   31 1   
    29   24   25 1   
    30   24   32 1   
    31   24   33 1   
    32   25   26 1   
    33   25   34 1   
    34   25   35 1   
    35   26   27 1   
    36   26   36 1   
    37   26   37 1   
    38   27   38 1   
    39   27   39 1   
    40   27   40 1   
    41   41   42 1   
    42   41   49 1   
    43   42   43 1   
    44   42   45 1   
    45   42   50 1   
    46   43   44 2   
    47   43   53 1   
    48   45   46 1   
    49   45   51 1   
    50   45   52 1   
    51   46   47 1   
    52   46   48 1   
    53   53   54 1   
    54   53   57 1   
    55   54   55 1   
    56   54   58 1   
    57   54   59 1   
    58   55   56 2   
    59   55   60 1   
    60   60   61 1   
    61   60   68 1   
    62   61   62 1   
    63   61   64 1   
    64   61   69 1   
    65   62   63 2   
    66   62   72 1   
    67   64   65 1   
    68   64   70 1   
    69   64   71 1   
    70   65   66 1   
    71   65   67 1   
    72   72   73 1   
    73   72   76 1   
    74   73   74 1   
    75   73   77 1   
    76   73   78 1   
    77   74   75 2   
    78   74   79 1   
    79   79   80 1   
    80   79   86 1   
    81   80   81 1   
    82   80   83 1   
    83   80   87 1   
    84   81   82 2   
    85   81   93 1   
    86   83   84 1   
    87   83   85 1   
    88   83   88 1   
    89   84   90 1   
    90   84   91 1   
    91   84   92 1   
    92   85   89 1   
    93   93   94 1   
    94   93  101 1   
    95   94   95 1   
    96   94   97 1   
    97   94  102 1   
    98   95   96 2   
    99   95  112 1   
   100   97   98 1   
   101   97   99 1   
   102   97  103 1   
   103   98  100 1   
   104   98  104 1   
   105   98  105 1   
   106   99  106 1   
   107   99  107 1   
   108   99  108 1   
   109  100  109 1   
   110  100  110 1   
   111  100  111 1   
   112  112  113 1   
   113  112  119 1   
   114  113  114 1   
   115  113  116 1   
   116  113  120 1   
   117  114  115 2   
   118  114  126 1   
   119  116  117 1   
   120  116  118 1   
   121  116  121 1   
   122  117  123 1   
   123  117  124 1   
   124  117  125 1   
   125  118  122 1   
   126  126  127 1   
   127  126  133 1   
   128  127  128 1   
   129  127  130 1   
   130  127  134 1   
   131  128  129 2   
   132  128  140 1   
   133  130  131 1   
   134  130  132 1   
   135  130  135 1   
   136  131  137 1   
   137  131  138 1   
   138  131  139 1   
   139  132  136 1   
   140  140  141 1   
   141  140  149 1   
   142  141  142 1   
   143  141  144 1   
   144  141  150 1   
   145  142  143 2   
   146  142  162 1   
   147  144  145 1   
   148  144  151 1   
   149  144  152 1   
   150  145  146 1   
   151  145  153 1   
   152  145  154 1   
   153  146  147 1   
   154  146  155 1   
   155  146  156 1   
   156  147  148 1   
   157  147  157 1   
   158  147  158 1   
   159  148  159 1   
   160  148  160 1   
   161  148  161 1   
   162  162  163 1   
   163  162  171 1   
   164  163  164 1   
   165  163  166 1   
   166  163  172 1   
   167  164  165 2   
   168  164  177 1   
   169  166  167 1   
   170  166  173 1   
   171  166  174 1   
   172  167  168 1   
   173  167  175 1   
   174  167  176 1   
   175  168  169 1   
   176  168  170 1   
   177  177  178 1   
   178  177  182 1   
   179  178  179 1   
   180  178  180 1   
   181  178  181 1   
   182  184  185 1   
   183  184  186 1   
   184  187  188 1   
   185  187  189 1   
@<TRIPOS>SUBSTRUCTURE
     1 MOL         1 TEMP              0 ****  ****    0 ROOT
