@<TRIPOS>MOLECULE
MOL
  186   183     1     0     0
SMALL
resp


@<TRIPOS>ATOM
      1 C1        -11.8210    4.4060    4.1650 c3        1 MOL     -0.479626
      2 C2        -11.7910    3.5270    2.9110 c         1 MOL      0.604141
      3 O1        -12.3840    2.4850    2.8090 o         1 MOL     -0.559170
      4 H1        -11.2230    5.3010    3.9950 hc        1 MOL      0.128109
      5 H2        -12.8490    4.6930    4.3840 hc        1 MOL      0.128109
      6 H3        -11.4100    3.8500    5.0080 hc        1 MOL      0.128109
      7 N1        -11.0840    3.9750    1.8720 n         1 MOL     -0.080312
      8 C3        -10.9890    3.3340    0.5380 c3        1 MOL     -0.771662
      9 C4         -9.9320    2.1590    0.4750 c         1 MOL      0.645056
     10 O2         -8.9690    2.0660    1.2230 o         1 MOL     -0.549589
     11 C5        -10.7170    4.4400   -0.5280 c3        1 MOL      0.354203
     12 C6         -9.6800    5.4830   -0.0970 c         1 MOL      0.577325
     13 O3         -9.5380    6.5140   -0.8040 o         1 MOL     -0.706297
     14 O4         -8.9270    5.4350    0.9160 o         1 MOL     -0.706297
     15 H4        -10.5840    4.8470    1.9400 hn        1 MOL      0.141441
     16 H5        -11.9650    2.9010    0.3260 h1        1 MOL      0.206109
     17 H6        -11.5950    4.9550   -0.9180 hc        1 MOL      0.001610
     18 H7        -10.3100    3.8950   -1.3730 hc        1 MOL      0.001610
     19 N2        -10.2010    1.3220   -0.4950 n         1 MOL     -0.232681
     20 C7         -9.4350    0.0160   -0.7250 c3        1 MOL     -0.212145
     21 C8         -8.0190    0.2360   -1.2540 c         1 MOL      0.561618
     22 O5         -7.7220   -0.3240   -2.3220 o         1 MOL     -0.560013
     23 C9        -10.3650   -0.7960   -1.6560 c3        1 MOL      0.379194
     24 C10       -10.1060   -2.3470   -1.7980 c3        1 MOL     -0.127443
     25 C11       -10.8660   -3.0760   -2.8870 c3        1 MOL     -0.059976
     26 C12       -12.3820   -2.7140   -2.9010 c3        1 MOL      0.150924
     27 N3        -12.9780   -3.2560   -4.2010 n4        1 MOL     -0.449498
     28 H8        -10.9210    1.5210   -1.1590 hn        1 MOL      0.220465
     29 H9         -9.3340   -0.5860    0.1700 h1        1 MOL      0.100320
     30 H10       -10.3130   -0.3760   -2.6540 hc        1 MOL     -0.080369
     31 H11       -11.3870   -0.6840   -1.2840 hc        1 MOL     -0.080369
     32 H12       -10.2470   -2.7100   -0.7770 hc        1 MOL      0.060097
     33 H13        -9.0620   -2.4230   -2.1110 hc        1 MOL      0.060097
     34 H14       -10.8030   -4.1630   -2.7810 hc        1 MOL      0.068709
     35 H15       -10.4070   -2.8140   -3.8470 hc        1 MOL      0.068709
     36 H16       -12.5130   -1.6370   -2.8210 hx        1 MOL      0.044338
     37 H17       -12.9050   -3.1440   -2.0450 hx        1 MOL      0.044338
     38 H18       -12.8580   -4.2560   -4.2070 hn        1 MOL      0.319400
     39 H19       -13.9470   -2.9920   -4.3530 hn        1 MOL      0.319400
     40 H20       -12.6090   -2.8800   -5.0670 hn        1 MOL      0.319400
     41 N4         -7.2530    1.0660   -0.6040 n         1 MOL     -0.223004
     42 C13        -5.8500    1.2360   -1.0090 c3        1 MOL      0.014907
     43 C14        -4.9480    1.7490    0.1760 c         1 MOL      0.532112
     44 O6         -5.3970    2.5950    0.9570 o         1 MOL     -0.717052
     45 C15        -5.8060    2.2220   -2.1560 c3        1 MOL     -0.016574
     46 C16        -6.5210    3.5890   -2.0560 c         1 MOL      0.407297
     47 O7         -6.3310    4.3730   -3.0580 o         1 MOL     -0.594186
     48 O8         -7.2040    3.8100   -1.0530 o         1 MOL     -0.594186
     49 H21        -7.5090    1.5660    0.2390 hn        1 MOL      0.215905
     50 H22        -5.6170    0.2020   -1.2860 h1        1 MOL      0.022815
     51 H23        -6.1460    1.6840   -3.0400 hc        1 MOL      0.038559
     52 H24        -4.7410    2.3790   -2.3200 hc        1 MOL      0.038559
     53 N5         -3.7080    1.2510    0.3680 n         1 MOL     -0.346375
     54 C17        -3.0050    0.1970   -0.3710 c3        1 MOL     -0.190723
     55 C18        -3.5940   -1.1770   -0.0320 c         1 MOL      0.867231
     56 O9         -3.6260   -1.6020    1.1320 o         1 MOL     -0.604665
     57 H25        -3.2550    1.5180    1.2350 hn        1 MOL      0.295763
     58 H26        -1.9480    0.2340   -0.1070 h1        1 MOL      0.098405
     59 H27        -3.1080    0.4010   -1.4390 h1        1 MOL      0.098405
     60 N6         -4.1450   -1.8330   -1.0110 n         1 MOL     -0.898661
     61 C19        -4.8650   -3.1480   -0.7790 c3        1 MOL      0.490320
     62 C20        -4.0200   -4.3450   -0.4440 c         1 MOL      0.688185
     63 O10        -4.2020   -4.8960    0.6210 o         1 MOL     -0.536332
     64 C21        -5.7780   -3.4500   -1.9770 c3        1 MOL     -0.400924
     65 C22        -6.6470   -4.6530   -1.7170 c         1 MOL      0.693791
     66 O11        -6.9470   -5.4550   -2.6360 o         1 MOL     -0.681843
     67 O12        -6.9570   -4.9180   -0.5450 o         1 MOL     -0.681843
     68 H28        -4.2060   -1.5160   -1.9670 hn        1 MOL      0.356997
     69 H29        -5.5180   -3.0390    0.0930 h1        1 MOL     -0.023130
     70 H30        -5.1890   -3.5910   -2.8820 hc        1 MOL      0.061636
     71 H31        -6.4650   -2.6170   -2.1410 hc        1 MOL      0.061636
     72 N7         -3.0940   -4.6970   -1.3320 n         1 MOL     -0.478506
     73 C23        -2.2010   -5.9060   -1.1800 c3        1 MOL     -0.162089
     74 C24        -1.0280   -5.8710   -0.2030 c         1 MOL      0.497581
     75 O13        -0.1780   -6.7250   -0.2960 o         1 MOL     -0.553056
     76 H32        -2.9510   -4.2110   -2.2090 hn        1 MOL      0.303515
     77 H33        -1.9080   -6.2300   -2.1790 h1        1 MOL      0.122160
     78 H34        -2.8340   -6.7280   -0.8530 h1        1 MOL      0.122160
     79 N8         -1.0350   -4.9130    0.7170 n         1 MOL     -0.156483
     80 C25         0.1330   -4.4550    1.4970 c3        1 MOL      0.122144
     81 C26         0.7040   -3.1400    0.9590 c         1 MOL      0.510993
     82 O14         0.0310   -2.4360    0.1360 o         1 MOL     -0.558438
     83 C27        -0.2800   -4.3800    2.9910 c3        1 MOL      0.188978
     84 C28        -1.3820   -3.3970    3.4070 c3        1 MOL     -0.118220
     85 O15        -0.6140   -5.6730    3.4480 oh        1 MOL     -0.594736
     86 H35        -1.7460   -4.2110    0.5600 hn        1 MOL      0.052317
     87 H36         0.9620   -5.1610    1.4300 h1        1 MOL      0.035691
     88 H37         0.6490   -4.1340    3.5040 h1        1 MOL     -0.012673
     89 H38        -0.5210   -5.6240    4.3960 ho        1 MOL      0.389386
     90 H39        -2.3670   -3.8400    3.2750 hc        1 MOL      0.052011
     91 H40        -1.3160   -3.0880    4.4480 hc        1 MOL      0.052011
     92 H41        -1.1970   -2.4490    2.8800 hc        1 MOL      0.052011
     93 N9          1.8440   -2.7780    1.4890 n         1 MOL     -0.452027
     94 C29         2.5170   -1.4350    1.2790 c3        1 MOL     -0.045562
     95 C30         3.9580   -1.5200    0.5930 c         1 MOL      0.663963
     96 O16         4.3440   -0.5210    0.0280 o         1 MOL     -0.522754
     97 C31         2.5810   -0.6340    2.6060 c3        1 MOL     -0.023550
     98 C32         1.3390   -0.8560    3.5200 c3        1 MOL      0.107678
     99 C33         2.8300    0.8600    2.3440 c3        1 MOL     -0.064675
    100 C34         1.2910   -0.0760    4.8400 c3        1 MOL     -0.275060
    101 H42         2.1920   -3.3240    2.2620 hn        1 MOL      0.263153
    102 H43         1.9600   -0.8020    0.5860 h1        1 MOL      0.104433
    103 H44         3.4740   -0.9200    3.1540 hc        1 MOL      0.015233
    104 H45         1.2320   -1.9200    3.7100 hc        1 MOL      0.005873
    105 H46         0.4220   -0.6460    2.9550 hc        1 MOL      0.005873
    106 H47         3.4620    1.0920    1.4810 hc        1 MOL      0.034439
    107 H48         1.8820    1.3800    2.2230 hc        1 MOL      0.034439
    108 H49         3.2050    1.3480    3.2370 hc        1 MOL      0.034439
    109 H50         0.8590   -0.8170    5.5120 hc        1 MOL      0.063955
    110 H51         2.3630   -0.1110    5.0370 hc        1 MOL      0.063955
    111 H52         0.9030    0.9290    4.7010 hc        1 MOL      0.063955
    112 N10         4.6140   -2.7290    0.6300 n         1 MOL     -0.553663
    113 C35         5.8310   -3.0040   -0.1330 c3        1 MOL     -0.027081
    114 C36         7.0470   -3.0860    0.8510 c         1 MOL      0.683109
    115 O17         6.8960   -3.5630    1.9620 o         1 MOL     -0.551819
    116 C37         5.6950   -4.2270   -1.0500 c3        1 MOL      0.317925
    117 C38         4.4910   -4.1980   -1.9890 c3        1 MOL     -0.214268
    118 O18         6.9290   -4.2840   -1.8040 oh        1 MOL     -0.675727
    119 H53         4.2830   -3.5230    1.1560 hn        1 MOL      0.300183
    120 H54         6.0100   -2.1660   -0.8000 h1        1 MOL      0.105165
    121 H55         5.6080   -5.1910   -0.5460 h1        1 MOL      0.000258
    122 H56         6.8140   -5.0630   -2.3560 ho        1 MOL      0.412033
    123 H57         3.5840   -4.2610   -1.3980 hc        1 MOL      0.066881
    124 H58         4.5750   -3.3050   -2.6110 hc        1 MOL      0.066881
    125 H59         4.5350   -4.9770   -2.7500 hc        1 MOL      0.066881
    126 N11         8.2060   -2.6380    0.4070 n         1 MOL     -0.659392
    127 C39         9.3780   -2.5490    1.2040 c3        1 MOL     -0.006395
    128 C40         9.8590   -1.1110    1.2590 c         1 MOL      0.662434
    129 O19        10.4670   -0.7410    2.3080 o         1 MOL     -0.556051
    130 C41        10.4000   -3.5200    0.6910 c3        1 MOL      0.346125
    131 C42        11.6970   -3.4880    1.5650 c3        1 MOL     -0.298027
    132 O20        10.7010   -3.1940   -0.6640 oh        1 MOL     -0.667262
    133 H60         8.1830   -2.2580   -0.5300 hn        1 MOL      0.354726
    134 H61         9.0800   -2.8180    2.2120 h1        1 MOL      0.109282
    135 H62        10.0340   -4.5430    0.6290 h1        1 MOL      0.037397
    136 H63        10.2520   -3.7970   -1.2620 ho        1 MOL      0.420832
    137 H64        11.4370   -3.2290    2.5900 hc        1 MOL      0.071917
    138 H65        12.2050   -4.4510    1.5430 hc        1 MOL      0.071917
    139 H66        12.2780   -2.6170    1.2420 hc        1 MOL      0.071917
    140 N12         9.6400   -0.2700    0.1770 n         1 MOL     -0.472690
    141 C43        10.3090    0.9820   -0.0830 c3        1 MOL      0.102516
    142 C44         9.4880    1.9790   -0.8860 c         1 MOL      0.313035
    143 O21         8.5490    1.6960   -1.6870 o         1 MOL     -0.482317
    144 C45        11.6740    0.5680   -0.8610 c3        1 MOL     -0.209556
    145 C46        12.7250    1.7260   -1.0000 c3        1 MOL     -0.019603
    146 C47        14.0140    1.3640   -1.7750 c3        1 MOL     -0.161201
    147 C48        14.6220   -0.0240   -1.4600 c3        1 MOL      0.032276
    148 N13        15.0820   -0.1520   -0.0270 n4        1 MOL     -0.268731
    149 H67         9.1190   -0.7090   -0.5640 hn        1 MOL      0.244934
    150 H68        10.5130    1.3330    0.9280 h1        1 MOL      0.048863
    151 H69        11.3740    0.2200   -1.8530 hc        1 MOL      0.109139
    152 H70        12.1190   -0.2870   -0.3580 hc        1 MOL      0.109139
    153 H71        13.0760    2.0530   -0.0240 hc        1 MOL      0.026313
    154 H72        12.2340    2.5180   -1.5670 hc        1 MOL      0.026313
    155 H73        14.8250    2.0840   -1.6360 hc        1 MOL      0.102717
    156 H74        13.6590    1.2650   -2.8020 hc        1 MOL      0.102717
    157 H75        15.4070   -0.2450   -2.1880 hx        1 MOL      0.075338
    158 H76        13.8450   -0.7670   -1.6800 hx        1 MOL      0.075338
    159 H77        15.9260    0.3420    0.2350 hn        1 MOL      0.263304
    160 H78        14.4030    0.2560    0.5950 hn        1 MOL      0.263304
    161 H79        15.3330   -1.0990    0.1840 hn        1 MOL      0.263304
    162 N14         9.7900    3.2700   -0.7120 n         1 MOL     -0.048536
    163 C49         9.2590    4.3520   -1.4910 c3        1 MOL      0.111297
    164 C50         7.7030    4.4330   -1.4820 c         1 MOL      0.320874
    165 O22         7.1160    4.8560   -2.4510 o         1 MOL     -0.503711
    166 C51         9.8840    5.6520   -0.9580 c3        1 MOL      0.198263
    167 C52        11.4010    5.7130   -1.2560 c3        1 MOL     -0.210676
    168 C53        11.9600    7.1460   -1.2050 c         1 MOL      0.695072
    169 O23        12.1950    7.6550   -0.1040 o         1 MOL     -0.657300
    170 O24        12.3460    7.7120   -2.2730 o         1 MOL     -0.657300
    171 H80        10.4350    3.5450    0.0230 hn        1 MOL      0.170354
    172 H81         9.6750    4.2410   -2.4920 h1        1 MOL      0.049655
    173 H82         9.7640    5.7880    0.1060 hc        1 MOL     -0.033499
    174 H83         9.4670    6.5170   -1.4910 hc        1 MOL     -0.033499
    175 H84        11.4950    5.2180   -2.2270 hc        1 MOL     -0.014037
    176 H85        11.8440    5.1120   -0.4500 hc        1 MOL     -0.014037
    177 N15         6.9900    4.2040   -0.3720 n         1 MOL     -0.295256
    178 C54         7.3320    4.0950    1.0470 c3        1 MOL     -0.046597
    179 H86         7.2350    5.0730    1.5200 h1        1 MOL      0.035568
    180 H87         6.6580    3.3890    1.5320 h1        1 MOL      0.035568
    181 H88         8.3600    3.7450    1.1470 h1        1 MOL      0.035568
    182 H89         5.9930    4.1360   -0.5210 hn        1 MOL      0.280950
    183 Ca1        -6.5600    4.8010    1.2870 Ca        1 MOL      1.738189
    184 O25        -7.9420    3.7260    3.1080 oh        1 MOL     -0.945071
    185 H90        -8.4640    3.0590    2.6760 ho        1 MOL      0.446302
    186 H91        -8.0820    3.5740    4.0460 ho        1 MOL      0.446302
@<TRIPOS>BOND
     1    1    2 1   
     2    1    4 1   
     3    1    5 1   
     4    1    6 1   
     5    2    3 2   
     6    2    7 1   
     7    7    8 1   
     8    7   15 1   
     9    8    9 1   
    10    8   11 1   
    11    8   16 1   
    12    9   10 2   
    13    9   19 1   
    14   11   12 1   
    15   11   17 1   
    16   11   18 1   
    17   12   13 1   
    18   12   14 1   
    19   19   20 1   
    20   19   28 1   
    21   20   21 1   
    22   20   23 1   
    23   20   29 1   
    24   21   22 2   
    25   21   41 1   
    26   23   24 1   
    27   23   30 1   
    28   23   31 1   
    29   24   25 1   
    30   24   32 1   
    31   24   33 1   
    32   25   26 1   
    33   25   34 1   
    34   25   35 1   
    35   26   27 1   
    36   26   36 1   
    37   26   37 1   
    38   27   38 1   
    39   27   39 1   
    40   27   40 1   
    41   41   42 1   
    42   41   49 1   
    43   42   43 1   
    44   42   45 1   
    45   42   50 1   
    46   43   44 2   
    47   43   53 1   
    48   45   46 1   
    49   45   51 1   
    50   45   52 1   
    51   46   47 1   
    52   46   48 1   
    53   53   54 1   
    54   53   57 1   
    55   54   55 1   
    56   54   58 1   
    57   54   59 1   
    58   55   56 2   
    59   55   60 1   
    60   60   61 1   
    61   60   68 1   
    62   61   62 1   
    63   61   64 1   
    64   61   69 1   
    65   62   63 2   
    66   62   72 1   
    67   64   65 1   
    68   64   70 1   
    69   64   71 1   
    70   65   66 1   
    71   65   67 1   
    72   72   73 1   
    73   72   76 1   
    74   73   74 1   
    75   73   77 1   
    76   73   78 1   
    77   74   75 2   
    78   74   79 1   
    79   79   80 1   
    80   79   86 1   
    81   80   81 1   
    82   80   83 1   
    83   80   87 1   
    84   81   82 2   
    85   81   93 1   
    86   83   84 1   
    87   83   85 1   
    88   83   88 1   
    89   84   90 1   
    90   84   91 1   
    91   84   92 1   
    92   85   89 1   
    93   93   94 1   
    94   93  101 1   
    95   94   95 1   
    96   94   97 1   
    97   94  102 1   
    98   95   96 2   
    99   95  112 1   
   100   97   98 1   
   101   97   99 1   
   102   97  103 1   
   103   98  100 1   
   104   98  104 1   
   105   98  105 1   
   106   99  106 1   
   107   99  107 1   
   108   99  108 1   
   109  100  109 1   
   110  100  110 1   
   111  100  111 1   
   112  112  113 1   
   113  112  119 1   
   114  113  114 1   
   115  113  116 1   
   116  113  120 1   
   117  114  115 2   
   118  114  126 1   
   119  116  117 1   
   120  116  118 1   
   121  116  121 1   
   122  117  123 1   
   123  117  124 1   
   124  117  125 1   
   125  118  122 1   
   126  126  127 1   
   127  126  133 1   
   128  127  128 1   
   129  127  130 1   
   130  127  134 1   
   131  128  129 2   
   132  128  140 1   
   133  130  131 1   
   134  130  132 1   
   135  130  135 1   
   136  131  137 1   
   137  131  138 1   
   138  131  139 1   
   139  132  136 1   
   140  140  141 1   
   141  140  149 1   
   142  141  142 1   
   143  141  144 1   
   144  141  150 1   
   145  142  143 2   
   146  142  162 1   
   147  144  145 1   
   148  144  151 1   
   149  144  152 1   
   150  145  146 1   
   151  145  153 1   
   152  145  154 1   
   153  146  147 1   
   154  146  155 1   
   155  146  156 1   
   156  147  148 1   
   157  147  157 1   
   158  147  158 1   
   159  148  159 1   
   160  148  160 1   
   161  148  161 1   
   162  162  163 1   
   163  162  171 1   
   164  163  164 1   
   165  163  166 1   
   166  163  172 1   
   167  164  165 2   
   168  164  177 1   
   169  166  167 1   
   170  166  173 1   
   171  166  174 1   
   172  167  168 1   
   173  167  175 1   
   174  167  176 1   
   175  168  169 1   
   176  168  170 1   
   177  177  178 1   
   178  177  182 1   
   179  178  179 1   
   180  178  180 1   
   181  178  181 1   
   182  184  185 1   
   183  184  186 1   
@<TRIPOS>SUBSTRUCTURE
     1 MOL         1 TEMP              0 ****  ****    0 ROOT
