@<TRIPOS>MOLECULE
MOL
  181   177     1     0     0
SMALL
resp


@<TRIPOS>ATOM
      1 C1          3.5200   -2.2060    3.1880 c3        1 MOL     -0.328861
      2 C2          4.7390   -1.2740    2.9120 c         1 MOL      0.683544
      3 O1          4.7760   -0.6030    1.8670 o         1 MOL     -0.602149
      4 H1          3.4750   -2.9820    2.4230 hc        1 MOL      0.093210
      5 H2          3.6300   -2.6690    4.1680 hc        1 MOL      0.093210
      6 H3          2.6010   -1.6200    3.1640 hc        1 MOL      0.093210
      7 N1          5.8180   -1.3840    3.6390 n         1 MOL     -0.702168
      8 C3          7.0890   -0.7430    3.2380 c3        1 MOL      0.502941
      9 C4          7.8620   -1.3660    2.0900 c         1 MOL      0.511994
     10 O2          8.2970   -2.4990    2.2200 o         1 MOL     -0.566708
     11 C5          7.8900   -0.6510    4.5450 c3        1 MOL     -0.335941
     12 C6          9.3090    0.0470    4.4440 c         1 MOL      0.726508
     13 O3          9.5260    0.7000    3.4100 o         1 MOL     -0.723772
     14 O4         10.1550    0.0630    5.4210 o         1 MOL     -0.723772
     15 H4          5.7700   -1.8560    4.5340 hn        1 MOL      0.344054
     16 H5          6.9520    0.3040    2.9470 h1        1 MOL     -0.040509
     17 H6          8.0350   -1.6320    5.0030 hc        1 MOL      0.022937
     18 H7          7.2250   -0.1160    5.2180 hc        1 MOL      0.022937
     19 N2          8.0410   -0.6670    0.9470 n         1 MOL     -0.351313
     20 C7          8.4190   -1.2250   -0.3790 c3        1 MOL      0.173428
     21 C8          7.2090   -1.3730   -1.3500 c         1 MOL      0.427487
     22 O5          7.4050   -1.8390   -2.5030 o         1 MOL     -0.582789
     23 C9          9.5310   -0.3330   -0.8810 c3        1 MOL     -0.238127
     24 H8          8.0330    0.3340    1.0920 hn        1 MOL      0.217731
     25 H9          8.8090   -2.2200   -0.1340 h1        1 MOL      0.071104
     26 H10        10.3380   -0.2590   -0.1560 hc        1 MOL      0.060136
     27 H11         9.9930   -0.6640   -1.8120 hc        1 MOL      0.060136
     28 H12         9.1560    0.6700   -1.0650 hc        1 MOL      0.060136
     29 N3          6.0070   -1.0830   -0.8670 n         1 MOL     -0.342571
     30 C10         4.7610   -1.4660   -1.4680 c3        1 MOL      0.052479
     31 C11         4.5020   -0.9870   -2.9230 c         1 MOL      0.641056
     32 O6          3.5250   -1.3260   -3.5580 o         1 MOL     -0.582100
     33 C12         4.6070   -3.0680   -1.2390 c3        1 MOL     -0.026718
     34 C13         3.1210   -3.5430   -1.0980 c         1 MOL      0.581750
     35 O7          2.8180   -4.5860   -1.7420 o         1 MOL     -0.686242
     36 O8          2.2430   -2.9690   -0.4040 o         1 MOL     -0.686242
     37 H13         6.0110   -0.6660    0.0550 hn        1 MOL      0.154131
     38 H14         3.9350   -0.9490   -0.9800 h1        1 MOL      0.106617
     39 H15         5.2180   -3.4260   -0.4090 hc        1 MOL      0.020750
     40 H16         5.0500   -3.5550   -2.1110 hc        1 MOL      0.020750
     41 N4          5.2950    0.0180   -3.3500 n         1 MOL     -0.246512
     42 C14         5.2210    0.6870   -4.6000 c3        1 MOL     -0.293788
     43 C15         3.9890    1.5880   -4.8000 c         1 MOL      0.449351
     44 O9          3.6930    2.0360   -5.9150 o         1 MOL     -0.555347
     45 H17         5.9610    0.3830   -2.6710 hn        1 MOL      0.228546
     46 H18         5.2990   -0.0300   -5.4140 h1        1 MOL      0.139887
     47 H19         6.0430    1.3940   -4.7010 h1        1 MOL      0.139887
     48 N5          3.2110    1.8070   -3.7360 n         1 MOL     -0.125567
     49 C16         2.1380    2.7710   -3.7770 c3        1 MOL      0.034210
     50 C17         2.1260    3.4820   -2.4540 c         1 MOL      0.367208
     51 O10         2.3020    2.8390   -1.4520 o         1 MOL     -0.391069
     52 C18         0.8950    1.9310   -4.0700 c3        1 MOL     -0.136169
     53 C19        -0.1620    2.7480   -4.8120 c         1 MOL      0.616960
     54 N6         -1.0970    2.0880   -5.4480 n         1 MOL     -0.670182
     55 O11        -0.2140    3.9690   -4.7850 o         1 MOL     -0.557978
     56 H20         3.5600    1.4350   -2.8700 hn        1 MOL      0.094142
     57 H21         2.2310    3.4990   -4.5900 h1        1 MOL      0.030430
     58 H22         0.5120    1.5800   -3.1130 hc        1 MOL      0.075974
     59 H23         1.0700    1.0720   -4.7110 hc        1 MOL      0.075974
     60 H24        -1.1000    1.0800   -5.3410 hn        1 MOL      0.307844
     61 H25        -1.9350    2.5700   -5.7510 hn        1 MOL      0.307844
     62 N7          1.6870    4.7610   -2.4980 n         1 MOL     -0.378066
     63 C20         1.5360    5.7000   -1.4140 c3        1 MOL     -0.044762
     64 C21         0.0630    5.6600   -0.7690 c         1 MOL      0.439722
     65 O12        -0.7830    4.8680   -1.1690 o         1 MOL     -0.349741
     66 H26         1.5110    5.0530   -3.4520 hn        1 MOL      0.294702
     67 H27         1.8060    6.6910   -1.7570 h1        1 MOL      0.060753
     68 H28         2.2000    5.3080   -0.6380 h1        1 MOL      0.060753
     69 N8         -0.0900    6.3720    0.3180 n         1 MOL     -0.229336
     70 C22        -1.3380    6.5700    1.0550 c3        1 MOL     -0.598626
     71 C23        -1.9040    5.3920    1.8580 c         1 MOL      0.634562
     72 O13        -3.0740    5.1710    1.7900 o         1 MOL     -0.557013
     73 C24        -1.2240    7.8680    1.8730 c3        1 MOL      0.444444
     74 C25        -0.3820    7.7390    3.1410 c3        1 MOL     -0.423907
     75 O14        -0.9070    8.9920    1.1030 oh        1 MOL     -0.608583
     76 H29         0.6510    6.9460    0.6950 hn        1 MOL      0.214501
     77 H30        -2.1260    6.7360    0.3200 h1        1 MOL      0.246669
     78 H31        -2.1930    8.2020    2.2400 h1        1 MOL      0.061410
     79 H32        -0.0010    8.9490    0.7990 ho        1 MOL      0.377862
     80 H33        -0.4880    8.5550    3.8530 hc        1 MOL      0.106129
     81 H34        -0.5900    6.8630    3.7570 hc        1 MOL      0.106129
     82 H35         0.6440    7.6830    2.7870 hc        1 MOL      0.106129
     83 N9         -1.0070    4.5510    2.3570 n         1 MOL     -0.174602
     84 C26        -1.3580    3.2390    2.9740 c3        1 MOL     -0.027943
     85 C27        -1.2830    2.1710    1.9150 c         1 MOL      0.442752
     86 O15        -0.3660    2.1710    1.0830 o         1 MOL     -0.504448
     87 C28        -0.5110    3.0170    4.2560 c3        1 MOL      0.292051
     88 C29        -0.7170    4.1540    5.2900 c3        1 MOL     -0.026854
     89 C30        -0.7220    1.6090    4.7860 c3        1 MOL     -0.295532
     90 C31        -2.1720    4.5860    5.4050 c3        1 MOL      0.019015
     91 H36        -0.0320    4.7570    2.2010 hn        1 MOL      0.194332
     92 H37        -2.3880    3.3520    3.3070 h1        1 MOL      0.039891
     93 H38         0.5420    3.1370    3.9890 hc        1 MOL     -0.035650
     94 H39        -0.1050    5.0200    5.0280 hc        1 MOL     -0.017512
     95 H40        -0.4350    3.7120    6.2440 hc        1 MOL     -0.017512
     96 H41        -0.2550    1.5490    5.7770 hc        1 MOL      0.071466
     97 H42        -1.7760    1.3710    4.8620 hc        1 MOL      0.071466
     98 H43        -0.2390    0.9200    4.0940 hc        1 MOL      0.071466
     99 H44        -2.2990    5.2210    6.2850 hc        1 MOL     -0.014987
    100 H45        -2.3990    5.1980    4.5240 hc        1 MOL     -0.014987
    101 H46        -2.8530    3.7460    5.5250 hc        1 MOL     -0.014987
    102 N10        -2.2610    1.2900    1.7770 n         1 MOL     -0.473756
    103 C32        -2.1520    0.1790    0.8180 c3        1 MOL      0.147314
    104 C33        -3.4780   -0.1040    0.0710 c         1 MOL      0.346969
    105 O16        -3.6430   -1.2980   -0.3870 o         1 MOL     -0.454649
    106 C34        -1.4920   -1.0610    1.5620 c3        1 MOL     -0.311086
    107 C35        -1.0790   -2.1950    0.5630 c         1 MOL      0.942237
    108 O17        -0.9530   -1.9610   -0.6180 o         1 MOL     -0.810286
    109 O18        -0.6490   -3.2880    0.9960 o         1 MOL     -0.810286
    110 H47        -3.1160    1.3920    2.3050 hn        1 MOL      0.271133
    111 H48        -1.4810    0.4280    0.0060 h1        1 MOL      0.150901
    112 H49        -2.1550   -1.4800    2.3170 hc        1 MOL      0.083908
    113 H50        -0.6630   -0.4770    1.9660 hc        1 MOL      0.083908
    114 N11        -4.3980    0.8350   -0.0830 n         1 MOL     -0.313505
    115 C36        -5.7170    0.6080   -0.6770 c3        1 MOL      0.164700
    116 C37        -6.6000   -0.3060    0.2500 c         1 MOL      0.229794
    117 O19        -6.7420    0.1090    1.4130 o         1 MOL     -0.502349
    118 C38        -6.3780    1.9280   -1.0000 c3        1 MOL     -0.231767
    119 C39        -5.4810    2.7400   -1.9540 ca        1 MOL      0.112953
    120 C40        -4.6760    3.8580   -1.6200 ca        1 MOL     -0.179159
    121 C41        -5.4010    2.2440   -3.2700 ca        1 MOL     -0.179159
    122 C42        -3.8830    4.4880   -2.5680 ca        1 MOL     -0.098939
    123 C43        -4.5430    2.8270   -4.2130 ca        1 MOL     -0.098939
    124 C44        -3.8280    3.9840   -3.8730 ca        1 MOL     -0.129984
    125 H51        -4.2430    1.7550    0.3050 hn        1 MOL      0.272543
    126 H52        -5.5690    0.0490   -1.5980 h1        1 MOL      0.023950
    127 H53        -6.5330    2.5880   -0.1470 hc        1 MOL      0.094914
    128 H54        -7.3030    1.7390   -1.5420 hc        1 MOL      0.094914
    129 H55        -4.7890    4.2000   -0.5990 ha        1 MOL      0.111707
    130 H56        -5.8260    1.2960   -3.5770 ha        1 MOL      0.111707
    131 H57        -3.2760    5.3610   -2.3630 ha        1 MOL      0.103642
    132 H58        -4.4740    2.3750   -5.1990 ha        1 MOL      0.103642
    133 H59        -3.1690    4.3940   -4.6270 ha        1 MOL      0.115500
    134 N12        -7.2600   -1.3790   -0.2360 n         1 MOL      0.043392
    135 C45        -8.0830   -2.1990    0.5670 c3        1 MOL     -0.084687
    136 C46        -7.2380   -3.1370    1.4920 c         1 MOL      0.385830
    137 O20        -7.6620   -3.7580    2.4980 o         1 MOL     -0.539260
    138 C47        -8.9270   -3.0440   -0.4530 c3        1 MOL     -0.084393
    139 C48        -7.9530   -3.1930   -1.5880 c3        1 MOL      0.036499
    140 C49        -7.2210   -1.8810   -1.6120 c3        1 MOL     -0.097550
    141 H60        -8.6880   -1.4680    1.1000 h1        1 MOL      0.087937
    142 H61        -9.2470   -3.9990   -0.0110 hc        1 MOL      0.047220
    143 H62        -9.8520   -2.5480   -0.7430 hc        1 MOL      0.047220
    144 H63        -7.3080   -4.0480   -1.4080 hc        1 MOL      0.013142
    145 H64        -8.4110   -3.3200   -2.5730 hc        1 MOL      0.013142
    146 H65        -6.2130   -2.1090   -1.9560 h1        1 MOL      0.047763
    147 H66        -7.7020   -1.2070   -2.3240 h1        1 MOL      0.047763
    148 N13        -5.9010   -3.1870    1.1900 n         1 MOL     -0.049795
    149 C50        -4.9580   -3.9710    1.9940 c3        1 MOL     -0.439262
    150 C51        -4.5550   -3.6040    3.4340 c         1 MOL      0.529269
    151 O21        -3.8430   -4.3510    4.1200 o         1 MOL     -0.527762
    152 C52        -3.7490   -4.2340    1.0380 c3        1 MOL      0.200345
    153 C53        -3.9500   -5.1800   -0.1010 c3        1 MOL     -0.413196
    154 C54        -2.6240   -5.4980   -0.8080 c         1 MOL      0.779204
    155 O22        -2.3600   -5.1440   -1.9660 o         1 MOL     -0.756785
    156 O23        -1.7740   -6.1670   -0.2080 o         1 MOL     -0.756785
    157 H67        -5.5090   -2.6040    0.4750 hn        1 MOL      0.207113
    158 H68        -5.4490   -4.9330    2.1790 h1        1 MOL      0.164513
    159 H69        -3.0320   -4.7950    1.6550 hc        1 MOL      0.040755
    160 H70        -3.2730   -3.3240    0.6810 hc        1 MOL      0.040755
    161 H71        -4.7310   -4.8650   -0.8000 hc        1 MOL      0.086396
    162 H72        -4.2730   -6.1210    0.3450 hc        1 MOL      0.086396
    163 N14        -5.0450   -2.4590    3.9200 n         1 MOL     -0.118249
    164 C55        -4.7580   -1.9920    5.2430 c3        1 MOL     -0.297625
    165 H73        -3.7780   -2.3570    5.5520 h1        1 MOL      0.102622
    166 H74        -4.7600   -0.9020    5.2530 h1        1 MOL      0.102622
    167 H75        -5.5160   -2.3640    5.9330 h1        1 MOL      0.102622
    168 H76        -5.6440   -1.8800    3.3500 hn        1 MOL      0.191851
    169 Ca1         0.2110   -4.4740   -1.2590 Ca        1 MOL      1.725286
    170 O24         1.2880   -5.3170    1.0930 oh        1 MOL     -0.761420
    171 H77         2.0710   -5.5330    1.6070 ho        1 MOL      0.371731
    172 H78         0.8410   -4.6510    1.6050 ho        1 MOL      0.371731
    173 O25        -0.3120   -4.9860   -3.9990 oh        1 MOL     -0.761420
    174 H79        -1.1660   -4.8570   -4.3930 ho        1 MOL      0.371731
    175 H80         0.2780   -4.4380   -4.5240 ho        1 MOL      0.371731
    176 O26         1.0570   -2.4390   -3.2580 oh        1 MOL     -0.761420
    177 H81         0.3750   -1.9780   -3.7410 ho        1 MOL      0.371731
    178 H82         1.8680   -1.9630   -3.4530 ho        1 MOL      0.371731
    179 O27         1.2170   -6.9460   -1.6350 oh        1 MOL     -0.761420
    180 H83         1.4270   -7.5400   -0.9110 ho        1 MOL      0.371731
    181 H84         1.6790   -7.3200   -2.3930 ho        1 MOL      0.371731
@<TRIPOS>BOND
     1    1    2 1   
     2    1    4 1   
     3    1    5 1   
     4    1    6 1   
     5    2    3 2   
     6    2    7 1   
     7    7    8 1   
     8    7   15 1   
     9    8    9 1   
    10    8   11 1   
    11    8   16 1   
    12    9   10 2   
    13    9   19 1   
    14   11   12 1   
    15   11   17 1   
    16   11   18 1   
    17   12   13 1   
    18   12   14 1   
    19   19   20 1   
    20   19   24 1   
    21   20   21 1   
    22   20   23 1   
    23   20   25 1   
    24   21   22 2   
    25   21   29 1   
    26   23   26 1   
    27   23   27 1   
    28   23   28 1   
    29   29   30 1   
    30   29   37 1   
    31   30   31 1   
    32   30   33 1   
    33   30   38 1   
    34   31   32 2   
    35   31   41 1   
    36   33   34 1   
    37   33   39 1   
    38   33   40 1   
    39   34   35 1   
    40   34   36 1   
    41   41   42 1   
    42   41   45 1   
    43   42   43 1   
    44   42   46 1   
    45   42   47 1   
    46   43   44 2   
    47   43   48 1   
    48   48   49 1   
    49   48   56 1   
    50   49   50 1   
    51   49   52 1   
    52   49   57 1   
    53   50   51 2   
    54   50   62 1   
    55   52   53 1   
    56   52   58 1   
    57   52   59 1   
    58   53   54 1   
    59   53   55 2   
    60   54   60 1   
    61   54   61 1   
    62   62   63 1   
    63   62   66 1   
    64   63   64 1   
    65   63   67 1   
    66   63   68 1   
    67   64   65 2   
    68   64   69 1   
    69   69   70 1   
    70   69   76 1   
    71   70   71 1   
    72   70   73 1   
    73   70   77 1   
    74   71   72 2   
    75   71   83 1   
    76   73   74 1   
    77   73   75 1   
    78   73   78 1   
    79   74   80 1   
    80   74   81 1   
    81   74   82 1   
    82   75   79 1   
    83   83   84 1   
    84   83   91 1   
    85   84   85 1   
    86   84   87 1   
    87   84   92 1   
    88   85   86 2   
    89   85  102 1   
    90   87   88 1   
    91   87   89 1   
    92   87   93 1   
    93   88   90 1   
    94   88   94 1   
    95   88   95 1   
    96   89   96 1   
    97   89   97 1   
    98   89   98 1   
    99   90   99 1   
   100   90  100 1   
   101   90  101 1   
   102  102  103 1   
   103  102  110 1   
   104  103  104 1   
   105  103  106 1   
   106  103  111 1   
   107  104  105 2   
   108  104  114 1   
   109  106  107 1   
   110  106  112 1   
   111  106  113 1   
   112  107  108 1   
   113  107  109 1   
   114  114  115 1   
   115  114  125 1   
   116  115  116 1   
   117  115  118 1   
   118  115  126 1   
   119  116  117 2   
   120  116  134 1   
   121  118  119 1   
   122  118  127 1   
   123  118  128 1   
   124  119  120 ar  
   125  119  121 ar  
   126  120  122 ar  
   127  120  129 1   
   128  121  123 ar  
   129  121  130 1   
   130  122  124 ar  
   131  122  131 1   
   132  123  124 ar  
   133  123  132 1   
   134  124  133 1   
   135  134  135 1   
   136  134  140 1   
   137  135  136 1   
   138  135  138 1   
   139  135  141 1   
   140  136  137 2   
   141  136  148 1   
   142  138  139 1   
   143  138  142 1   
   144  138  143 1   
   145  139  140 1   
   146  139  144 1   
   147  139  145 1   
   148  140  146 1   
   149  140  147 1   
   150  148  149 1   
   151  148  157 1   
   152  149  150 1   
   153  149  152 1   
   154  149  158 1   
   155  150  151 2   
   156  150  163 1   
   157  152  153 1   
   158  152  159 1   
   159  152  160 1   
   160  153  154 1   
   161  153  161 1   
   162  153  162 1   
   163  154  155 1   
   164  154  156 1   
   165  163  164 1   
   166  163  168 1   
   167  164  165 1   
   168  164  166 1   
   169  164  167 1   
   170  170  171 1   
   171  170  172 1   
   172  173  174 1   
   173  173  175 1   
   174  176  177 1   
   175  176  178 1   
   176  179  180 1   
   177  179  181 1   
@<TRIPOS>SUBSTRUCTURE
     1 MOL         1 TEMP              0 ****  ****    0 ROOT
