@<TRIPOS>MOLECULE
MOL
  175   173     1     0     0
SMALL
resp


@<TRIPOS>ATOM
      1 C1         -7.0200    8.0010    1.5230 c3        1 MOL     -0.396207
      2 C2         -8.1030    7.2340    0.5850 c         1 MOL      0.716718
      3 O1         -8.3320    7.6230   -0.5270 o         1 MOL     -0.567956
      4 H1         -7.5250    8.7770    2.0980 hc        1 MOL      0.092069
      5 H2         -6.5590    7.2860    2.2060 hc        1 MOL      0.092069
      6 H3         -6.2520    8.4530    0.8970 hc        1 MOL      0.092069
      7 N1         -8.6110    6.0540    1.0290 n         1 MOL     -0.666608
      8 C3         -9.5020    5.1090    0.2520 c3        1 MOL      0.364863
      9 C4         -8.7990    3.7880   -0.1480 c         1 MOL      0.554732
     10 O2         -9.3970    2.7260   -0.1050 o         1 MOL     -0.558302
     11 C5        -10.8410    4.9860    0.9880 c3        1 MOL     -0.300710
     12 C6        -11.9370    4.2030    0.1280 c         1 MOL      0.782760
     13 O3        -12.7940    3.5890    0.7390 o         1 MOL     -0.737797
     14 O4        -12.0080    4.4200   -1.0890 o         1 MOL     -0.737797
     15 H4         -8.2300    5.7390    1.9090 hn        1 MOL      0.293202
     16 H5         -9.6430    5.5530   -0.7330 h1        1 MOL     -0.000831
     17 H6        -11.2510    5.9570    1.2480 hc        1 MOL      0.034223
     18 H7        -10.7580    4.4150    1.9150 hc        1 MOL      0.034223
     19 N2         -7.5270    3.8320   -0.4240 n         1 MOL     -0.581865
     20 C7         -6.6480    2.8420   -1.0580 c3        1 MOL      0.287113
     21 C8         -5.4680    2.2920   -0.1760 c         1 MOL      0.528514
     22 O5         -4.9210    3.0230    0.6840 o         1 MOL     -0.561619
     23 C9         -6.1620    3.4620   -2.4120 c3        1 MOL     -0.162639
     24 H8         -7.1350    4.7460   -0.2410 hn        1 MOL      0.258694
     25 H9         -7.3160    2.0890   -1.4500 h1        1 MOL      0.045692
     26 H10        -5.5290    4.3250   -2.1850 hc        1 MOL      0.053091
     27 H11        -5.5380    2.7240   -2.9120 hc        1 MOL      0.053091
     28 H12        -6.9400    3.8030   -3.0960 hc        1 MOL      0.053091
     29 N3         -4.8930    1.1030   -0.2940 n         1 MOL     -0.528348
     30 C10        -5.3990    0.0270   -1.1450 c3        1 MOL      0.009984
     31 C11        -5.5940   -1.3140   -0.2960 c         1 MOL      0.673802
     32 O6         -4.7930   -1.6650    0.5100 o         1 MOL     -0.558793
     33 C12        -4.4540   -0.1700   -2.3000 c3        1 MOL     -0.203699
     34 C13        -2.9720   -0.5220   -2.0460 c         1 MOL      0.695810
     35 O7         -2.2670    0.1610   -1.2470 o         1 MOL     -0.706213
     36 O8         -2.3720   -1.5380   -2.5380 o         1 MOL     -0.706213
     37 H13        -3.9620    0.9490    0.0460 hn        1 MOL      0.351447
     38 H14        -6.3890    0.3300   -1.4810 h1        1 MOL      0.026797
     39 H15        -4.4590    0.7880   -2.8040 hc        1 MOL      0.050866
     40 H16        -4.9680   -0.8900   -2.9220 hc        1 MOL      0.050866
     41 N4         -6.6870   -1.9630   -0.6010 n         1 MOL     -0.570026
     42 C14        -6.9890   -3.2800   -0.1000 c3        1 MOL      0.169545
     43 C15        -6.8300   -4.3210   -1.3140 c         1 MOL      0.431272
     44 O9         -7.7760   -4.7400   -1.9250 o         1 MOL     -0.547928
     45 H17        -7.1670   -1.7130   -1.4480 hn        1 MOL      0.347216
     46 H18        -8.0180   -3.4300    0.2410 h1        1 MOL      0.036347
     47 H19        -6.3610   -3.6260    0.7170 h1        1 MOL      0.036347
     48 N5         -5.6690   -4.8190   -1.6770 n         1 MOL     -0.376954
     49 C16        -4.3340   -4.4080   -1.3100 c3        1 MOL      0.190635
     50 C17        -4.0360   -5.1180   -0.0300 c         1 MOL      0.335751
     51 O10        -3.9480   -6.3550   -0.0320 o         1 MOL     -0.542514
     52 C18        -3.3200   -4.7560   -2.4480 c3        1 MOL     -0.207058
     53 C19        -1.8130   -4.4740   -2.1370 c         1 MOL      0.732061
     54 N6         -0.8650   -4.7030   -3.0020 n         1 MOL     -0.680716
     55 O11        -1.4590   -3.9540   -1.0420 o         1 MOL     -0.780304
     56 H20        -5.6650   -5.4500   -2.4670 hn        1 MOL      0.281869
     57 H21        -4.3730   -3.3270   -1.1620 h1        1 MOL      0.032340
     58 H22        -3.5570   -4.1730   -3.3410 hc        1 MOL      0.051565
     59 H23        -3.3480   -5.8170   -2.6790 hc        1 MOL      0.051565
     60 H24        -1.1050   -5.2800   -3.7960 hn        1 MOL      0.339264
     61 H25         0.0880   -4.4960   -2.7360 hn        1 MOL      0.339264
     62 N7         -3.7540   -4.4210    1.0740 n         1 MOL     -0.012827
     63 C20        -3.4700   -4.9470    2.3980 c3        1 MOL     -0.426546
     64 C21        -2.0380   -5.2860    2.6200 c         1 MOL      0.532352
     65 O12        -1.7070   -5.8270    3.7090 o         1 MOL     -0.579180
     66 H26        -3.7030   -3.4070    1.0110 hn        1 MOL      0.156308
     67 H27        -4.0290   -5.8620    2.6030 h1        1 MOL      0.164957
     68 H28        -3.7780   -4.1810    3.1040 h1        1 MOL      0.164957
     69 N8         -1.0630   -4.9580    1.7280 n         1 MOL     -0.222422
     70 C22         0.3600   -5.1570    1.9550 c3        1 MOL     -0.094141
     71 C23         1.0790   -3.8100    1.7990 c         1 MOL      0.516136
     72 O13         0.5560   -2.8470    1.2150 o         1 MOL     -0.583370
     73 C24         0.8830   -6.3180    1.1060 c3        1 MOL      0.387069
     74 C25         0.1040   -7.6110    1.2180 c3        1 MOL     -0.419584
     75 O14         0.8790   -5.9110   -0.2340 oh        1 MOL     -0.663896
     76 H29        -1.3180   -4.6740    0.7880 hn        1 MOL      0.372108
     77 H30         0.5040   -5.4090    3.0070 h1        1 MOL      0.045490
     78 H31         1.9120   -6.5500    1.4070 h1        1 MOL     -0.020948
     79 H32         1.5760   -5.2820   -0.4340 ho        1 MOL      0.484709
     80 H33         0.1650   -7.8300    2.2810 hc        1 MOL      0.104782
     81 H34        -0.8850   -7.5090    0.7530 hc        1 MOL      0.104782
     82 H35         0.6770   -8.4120    0.7650 hc        1 MOL      0.104782
     83 N9          2.1740   -3.7580    2.4720 n         1 MOL     -0.344493
     84 C26         3.1070   -2.6090    2.3120 c3        1 MOL      0.403734
     85 C27         4.2560   -2.8610    1.3210 c         1 MOL      0.106735
     86 O15         5.0580   -3.7840    1.4600 o         1 MOL     -0.482524
     87 C28         3.6230   -2.1200    3.7060 c3        1 MOL     -0.026817
     88 C29         4.6170   -0.9090    3.6220 c3        1 MOL      0.104124
     89 C30         2.5250   -1.7480    4.7320 c3        1 MOL     -0.331996
     90 C31         4.0640    0.3630    2.9000 c3        1 MOL     -0.099242
     91 H36         2.6310   -4.6210    2.7550 hn        1 MOL      0.231312
     92 H37         2.5740   -1.7790    1.8450 h1        1 MOL     -0.081159
     93 H38         4.2250   -2.9090    4.1430 hc        1 MOL      0.009899
     94 H39         5.5000   -1.2520    3.0780 hc        1 MOL     -0.010704
     95 H40         5.0950   -0.5720    4.5470 hc        1 MOL     -0.010704
     96 H41         2.9440   -1.4850    5.7010 hc        1 MOL      0.084721
     97 H42         2.0440   -0.8140    4.4400 hc        1 MOL      0.084721
     98 H43         1.7240   -2.4920    4.7920 hc        1 MOL      0.084721
     99 H44         4.8790    0.9610    2.4770 hc        1 MOL      0.003710
    100 H45         3.4830    0.2080    2.0030 hc        1 MOL      0.003710
    101 H46         3.4100    0.9630    3.5350 hc        1 MOL      0.003710
    102 N10         4.2690   -2.1280    0.1550 n         1 MOL     -0.116970
    103 C32         4.9650   -2.4590   -1.0390 c3        1 MOL      0.198501
    104 C33         6.1320   -1.4460   -1.4150 c         1 MOL      0.423906
    105 O16         6.6700   -1.5890   -2.5320 o         1 MOL     -0.536803
    106 C34         3.9010   -2.5790   -2.1100 c3        1 MOL     -0.394594
    107 C35         2.6980   -3.4140   -1.6620 c         1 MOL      0.937679
    108 O17         2.8410   -4.5750   -1.2180 o         1 MOL     -0.764493
    109 O18         1.5450   -2.9790   -1.9520 o         1 MOL     -0.764493
    110 H47         3.5690   -1.4180    0.0540 hn        1 MOL      0.167120
    111 H48         5.4360   -3.4210   -0.8760 h1        1 MOL      0.052057
    112 H49         4.3380   -2.9160   -3.0450 hc        1 MOL      0.095106
    113 H50         3.5940   -1.5370   -2.2490 hc        1 MOL      0.095106
    114 N11         6.4540   -0.4510   -0.5900 n         1 MOL     -0.492891
    115 C36         7.4000    0.6810   -0.9260 c3        1 MOL      0.367785
    116 C37         6.9940    2.0270   -0.1990 c         1 MOL      0.249258
    117 O19         6.5140    1.9250    0.8860 o         1 MOL     -0.477718
    118 C38         8.8190    0.2430   -0.5600 c3        1 MOL     -0.320785
    119 C39         9.9090    1.2390   -0.8220 ca        1 MOL      0.098221
    120 C40        10.1880    2.2020    0.2200 ca        1 MOL     -0.153381
    121 C41        10.6430    1.3750   -1.9870 ca        1 MOL     -0.153381
    122 C42        11.1660    3.2360    0.1010 ca        1 MOL     -0.159109
    123 C43        11.6180    2.3830   -2.1920 ca        1 MOL     -0.159109
    124 C44        11.8670    3.3190   -1.1270 ca        1 MOL     -0.072440
    125 H51         6.0050   -0.3530    0.3100 hn        1 MOL      0.276964
    126 H52         7.3330    0.8510   -1.9980 h1        1 MOL      0.022378
    127 H53         9.0770   -0.5970   -1.2110 hc        1 MOL      0.122417
    128 H54         8.8900   -0.0930    0.4720 hc        1 MOL      0.122417
    129 H55         9.6240    2.1870    1.1320 ha        1 MOL      0.122848
    130 H56        10.4000    0.6880   -2.7910 ha        1 MOL      0.122848
    131 H57        11.4080    3.9230    0.9050 ha        1 MOL      0.127899
    132 H58        12.1450    2.3800   -3.1300 ha        1 MOL      0.127899
    133 H59        12.6320    4.0720   -1.2490 ha        1 MOL      0.095298
    134 N12         7.1120    3.2060   -0.8070 n         1 MOL     -0.035257
    135 C45         6.8250    4.4680   -0.1300 c3        1 MOL      0.139203
    136 C46         5.3480    4.8360   -0.0230 c         1 MOL      0.672043
    137 O20         4.9190    5.9480   -0.2070 o         1 MOL     -0.559316
    138 C47         7.7780    5.5280   -0.7950 c3        1 MOL     -0.267897
    139 C48         8.4140    4.7500   -2.0250 c3        1 MOL      0.152419
    140 C49         7.6010    3.4360   -2.1430 c3        1 MOL     -0.160312
    141 H60         7.1780    4.2890    0.8860 h1        1 MOL      0.027147
    142 H61         7.1960    6.3740   -1.1490 hc        1 MOL      0.077935
    143 H62         8.5680    5.7520   -0.0770 hc        1 MOL      0.077935
    144 H63         8.1720    5.2850   -2.9370 hc        1 MOL     -0.016067
    145 H64         9.4860    4.5420   -1.9510 hc        1 MOL     -0.016067
    146 H65         6.7510    3.6130   -2.8000 h1        1 MOL      0.079927
    147 H66         8.1070    2.5620   -2.5620 h1        1 MOL      0.079927
    148 N13         4.4570    3.9030    0.3630 n         1 MOL     -0.712729
    149 C50         3.0430    4.0930    0.2980 c3        1 MOL      0.064392
    150 C51         2.5870    4.8110    1.5980 c         1 MOL      0.319479
    151 O21         1.3920    4.9120    1.9460 o         1 MOL     -0.501152
    152 C52         2.2450    2.7230    0.1600 c3        1 MOL     -0.052467
    153 C53         2.6450    1.9020   -1.1010 c3        1 MOL      0.145849
    154 C54         1.8490    0.6040   -1.1850 c         1 MOL      0.620538
    155 O22         1.0540    0.3670   -2.1200 o         1 MOL     -0.722459
    156 O23         2.0720   -0.2450   -0.2920 o         1 MOL     -0.722459
    157 H67         4.7900    2.9790    0.5970 hn        1 MOL      0.332240
    158 H68         2.7100    4.7090   -0.5330 h1        1 MOL      0.137488
    159 H69         1.1570    2.7850    0.1500 hc        1 MOL      0.046770
    160 H70         2.5490    2.0940    0.9970 hc        1 MOL      0.046770
    161 H71         3.7270    1.7690   -1.0950 hc        1 MOL     -0.048800
    162 H72         2.3720    2.5350   -1.9460 hc        1 MOL     -0.048800
    163 N14         3.4920    5.3310    2.4190 n         1 MOL     -0.046409
    164 C55         3.2720    6.0010    3.6830 c3        1 MOL     -0.348797
    165 H73         2.7410    6.9370    3.5090 h1        1 MOL      0.126286
    166 H74         2.6780    5.3620    4.3350 h1        1 MOL      0.126286
    167 H75         4.2320    6.2110    4.1540 h1        1 MOL      0.126286
    168 H76         4.4570    5.3130    2.1340 hn        1 MOL      0.167532
    169 Ca1        -0.1960   -1.4170   -0.7920 Ca        1 MOL      1.731797
    170 O24        -2.1060   -1.6410    1.4920 oh        1 MOL     -0.816109
    171 H77        -1.8120   -0.7820    1.8220 ho        1 MOL      0.398676
    172 H78        -2.9660   -1.4650    1.1200 ho        1 MOL      0.398676
    173 O25        -0.0970    0.5070    1.1110 oh        1 MOL     -0.816109
    174 H79         0.8450    0.4260    1.2210 ho        1 MOL      0.398676
    175 H80        -0.3310    1.2970    1.6020 ho        1 MOL      0.398676
@<TRIPOS>BOND
     1    1    2 1   
     2    1    4 1   
     3    1    5 1   
     4    1    6 1   
     5    2    3 2   
     6    2    7 1   
     7    7    8 1   
     8    7   15 1   
     9    8    9 1   
    10    8   11 1   
    11    8   16 1   
    12    9   10 2   
    13    9   19 1   
    14   11   12 1   
    15   11   17 1   
    16   11   18 1   
    17   12   13 1   
    18   12   14 1   
    19   19   20 1   
    20   19   24 1   
    21   20   21 1   
    22   20   23 1   
    23   20   25 1   
    24   21   22 2   
    25   21   29 1   
    26   23   26 1   
    27   23   27 1   
    28   23   28 1   
    29   29   30 1   
    30   29   37 1   
    31   30   31 1   
    32   30   33 1   
    33   30   38 1   
    34   31   32 2   
    35   31   41 1   
    36   33   34 1   
    37   33   39 1   
    38   33   40 1   
    39   34   35 1   
    40   34   36 1   
    41   41   42 1   
    42   41   45 1   
    43   42   43 1   
    44   42   46 1   
    45   42   47 1   
    46   43   44 2   
    47   43   48 1   
    48   48   49 1   
    49   48   56 1   
    50   49   50 1   
    51   49   52 1   
    52   49   57 1   
    53   50   51 2   
    54   50   62 1   
    55   52   53 1   
    56   52   58 1   
    57   52   59 1   
    58   53   54 1   
    59   53   55 2   
    60   54   60 1   
    61   54   61 1   
    62   62   63 1   
    63   62   66 1   
    64   63   64 1   
    65   63   67 1   
    66   63   68 1   
    67   64   65 2   
    68   64   69 1   
    69   69   70 1   
    70   69   76 1   
    71   70   71 1   
    72   70   73 1   
    73   70   77 1   
    74   71   72 2   
    75   71   83 1   
    76   73   74 1   
    77   73   75 1   
    78   73   78 1   
    79   74   80 1   
    80   74   81 1   
    81   74   82 1   
    82   75   79 1   
    83   83   84 1   
    84   83   91 1   
    85   84   85 1   
    86   84   87 1   
    87   84   92 1   
    88   85   86 2   
    89   85  102 1   
    90   87   88 1   
    91   87   89 1   
    92   87   93 1   
    93   88   90 1   
    94   88   94 1   
    95   88   95 1   
    96   89   96 1   
    97   89   97 1   
    98   89   98 1   
    99   90   99 1   
   100   90  100 1   
   101   90  101 1   
   102  102  103 1   
   103  102  110 1   
   104  103  104 1   
   105  103  106 1   
   106  103  111 1   
   107  104  105 2   
   108  104  114 1   
   109  106  107 1   
   110  106  112 1   
   111  106  113 1   
   112  107  108 1   
   113  107  109 1   
   114  114  115 1   
   115  114  125 1   
   116  115  116 1   
   117  115  118 1   
   118  115  126 1   
   119  116  117 2   
   120  116  134 1   
   121  118  119 1   
   122  118  127 1   
   123  118  128 1   
   124  119  120 ar  
   125  119  121 ar  
   126  120  122 ar  
   127  120  129 1   
   128  121  123 ar  
   129  121  130 1   
   130  122  124 ar  
   131  122  131 1   
   132  123  124 ar  
   133  123  132 1   
   134  124  133 1   
   135  134  135 1   
   136  134  140 1   
   137  135  136 1   
   138  135  138 1   
   139  135  141 1   
   140  136  137 2   
   141  136  148 1   
   142  138  139 1   
   143  138  142 1   
   144  138  143 1   
   145  139  140 1   
   146  139  144 1   
   147  139  145 1   
   148  140  146 1   
   149  140  147 1   
   150  148  149 1   
   151  148  157 1   
   152  149  150 1   
   153  149  152 1   
   154  149  158 1   
   155  150  151 2   
   156  150  163 1   
   157  152  153 1   
   158  152  159 1   
   159  152  160 1   
   160  153  154 1   
   161  153  161 1   
   162  153  162 1   
   163  154  155 1   
   164  154  156 1   
   165  163  164 1   
   166  163  168 1   
   167  164  165 1   
   168  164  166 1   
   169  164  167 1   
   170  170  171 1   
   171  170  172 1   
   172  173  174 1   
   173  173  175 1   
@<TRIPOS>SUBSTRUCTURE
     1 MOL         1 TEMP              0 ****  ****    0 ROOT
