@<TRIPOS>MOLECULE
MOL
  194   186     1     0     0
SMALL
resp


@<TRIPOS>ATOM
      1 C1         -0.2400    0.6760   -3.7010 c3        1 MOL     -0.260611
      2 C2         -1.4880    0.5970   -2.7950 c         1 MOL      0.666159
      3 O1         -1.6530    1.3660   -1.8310 o         1 MOL     -0.622219
      4 H1          0.6570    0.5690   -3.0920 hc        1 MOL      0.069282
      5 H2         -0.2750   -0.1250   -4.4390 hc        1 MOL      0.069282
      6 H3         -0.2210    1.6400   -4.2100 hc        1 MOL      0.069282
      7 N1         -2.4400   -0.2410   -3.0860 n         1 MOL     -0.444985
      8 C3         -3.7660   -0.3630   -2.3220 c3        1 MOL      0.013133
      9 C4         -4.0600   -1.8690   -1.9280 c         1 MOL      0.447547
     10 O2         -5.1670   -2.1600   -1.6150 o         1 MOL     -0.358457
     11 C5         -4.8940    0.1980   -3.2600 c3        1 MOL     -0.043353
     12 C6         -5.0700   -0.3940   -4.6360 c         1 MOL      0.669165
     13 O3         -4.3060   -1.2630   -5.0230 o         1 MOL     -0.694462
     14 O4         -5.9990    0.0400   -5.3770 o         1 MOL     -0.694462
     15 H4         -2.2800   -0.8660   -3.8650 hn        1 MOL      0.272681
     16 H5         -3.8960    0.2880   -1.4410 h1        1 MOL      0.080830
     17 H6         -4.8620    1.2850   -3.3220 hc        1 MOL      0.011344
     18 H7         -5.8380   -0.0550   -2.7690 hc        1 MOL      0.011344
     19 N2         -3.1450   -2.8340   -2.0040 n         1 MOL     -0.543687
     20 C7         -3.2980   -4.3230   -1.8660 c3        1 MOL      0.286476
     21 C8         -4.2120   -4.6730   -0.6130 c         1 MOL      0.301750
     22 O5         -4.9670   -5.6430   -0.7690 o         1 MOL     -0.504498
     23 C9         -3.7220   -5.0360   -3.2040 c3        1 MOL     -0.214427
     24 C10        -2.5280   -5.3040   -4.0840 c3        1 MOL      0.108493
     25 C11        -2.9520   -6.1450   -5.2870 c3        1 MOL      0.086952
     26 C12        -1.7760   -6.2120   -6.3860 c3        1 MOL     -0.195876
     27 N3         -0.6280   -7.0390   -5.9600 n4        1 MOL     -0.335764
     28 H8         -2.2020   -2.5720   -2.2430 hn        1 MOL      0.264649
     29 H9         -2.3340   -4.7480   -1.5740 h1        1 MOL      0.038654
     30 H10        -4.4650   -4.4730   -3.7500 hc        1 MOL      0.091958
     31 H11        -4.0800   -6.0480   -2.9960 hc        1 MOL      0.091958
     32 H12        -1.7510   -5.7790   -3.4860 hc        1 MOL     -0.015304
     33 H13        -2.0250   -4.4120   -4.4630 hc        1 MOL     -0.015304
     34 H14        -3.8400   -5.8270   -5.8310 hc        1 MOL      0.019181
     35 H15        -3.1760   -7.1650   -4.9730 hc        1 MOL      0.019181
     36 H16        -1.5320   -5.1720   -6.5750 hx        1 MOL      0.153847
     37 H17        -2.1490   -6.6090   -7.3280 hx        1 MOL      0.153847
     38 H18         0.1230   -7.0290   -6.6280 hn        1 MOL      0.326031
     39 H19        -0.2420   -6.8090   -5.0530 hn        1 MOL      0.326031
     40 H20        -0.6850   -8.0430   -6.0810 hn        1 MOL      0.326031
     41 N4         -4.3310   -3.8710    0.4790 n         1 MOL     -0.295244
     42 C13        -5.2180   -3.9790    1.6080 c3        1 MOL      0.498029
     43 C14        -5.9160   -2.6140    2.0190 c         1 MOL      0.306012
     44 O6         -5.9920   -2.3550    3.2370 o         1 MOL     -0.522360
     45 C15        -4.5950   -4.8100    2.8000 c3        1 MOL     -0.570674
     46 C16        -3.4070   -4.0310    3.4490 c         1 MOL      0.814787
     47 O7         -2.8130   -3.1340    2.8640 o         1 MOL     -0.780736
     48 O8         -3.0820   -4.1750    4.6900 o         1 MOL     -0.780736
     49 H21        -3.8710   -2.9850    0.3600 hn        1 MOL      0.204345
     50 H22        -6.0570   -4.5910    1.2790 h1        1 MOL     -0.011981
     51 H23        -4.2050   -5.7570    2.4370 hc        1 MOL      0.151578
     52 H24        -5.4120   -4.9930    3.4950 hc        1 MOL      0.151578
     53 N5         -6.1280   -1.6940    1.0740 n         1 MOL     -0.163414
     54 C17        -6.5550   -0.2990    1.2800 c3        1 MOL     -0.030773
     55 C18        -7.6610    0.1740    0.2850 c         1 MOL      0.672031
     56 O9         -8.6270   -0.5820    0.0790 o         1 MOL     -0.541756
     57 H25        -6.0470   -2.0360    0.1320 hn        1 MOL      0.101859
     58 H26        -5.6060    0.2010    1.0830 h1        1 MOL      0.039590
     59 H27        -6.8760   -0.2010    2.3190 h1        1 MOL      0.039590
     60 N6         -7.5790    1.3320   -0.3890 n         1 MOL     -0.602566
     61 C19        -6.6900    2.4590   -0.0550 c3        1 MOL      0.273507
     62 C20        -6.3440    3.2890   -1.3080 c         1 MOL      0.435686
     63 O10        -7.1880    3.4760   -2.1760 o         1 MOL     -0.503840
     64 C21        -7.2510    3.3940    1.0410 c3        1 MOL     -0.638670
     65 C22        -8.4300    4.1480    0.5910 c         1 MOL      0.851941
     66 N7         -8.3620    5.4980    0.4940 n         1 MOL     -0.848964
     67 O11        -9.5450    3.6700    0.5120 o         1 MOL     -0.549921
     68 H28        -8.2130    1.4590   -1.1560 hn        1 MOL      0.361889
     69 H29        -5.7180    2.0170    0.1900 h1        1 MOL      0.056984
     70 H30        -6.4260    4.0830    1.2400 hc        1 MOL      0.166643
     71 H31        -7.4580    2.8240    1.9430 hc        1 MOL      0.166643
     72 H32        -7.4930    5.9970    0.6290 hn        1 MOL      0.368545
     73 H33        -9.2010    6.0390    0.3050 hn        1 MOL      0.368545
     74 N8         -5.1630    3.7630   -1.5100 n         1 MOL     -0.487538
     75 C23        -3.9850    3.4870   -0.7260 c3        1 MOL      0.202152
     76 C24        -2.8550    4.5190   -0.8840 c         1 MOL      0.605809
     77 O12        -3.0770    5.6430   -1.3320 o         1 MOL     -0.542249
     78 H34        -5.0050    4.1440   -2.4360 hn        1 MOL      0.341809
     79 H35        -3.6480    2.4470   -0.8270 h1        1 MOL     -0.042655
     80 H36        -4.3220    3.6180    0.2970 h1        1 MOL     -0.042655
     81 N9         -1.5940    4.0830   -0.6040 n         1 MOL     -0.521405
     82 C25        -0.4090    4.8470   -0.8280 c3        1 MOL      0.034119
     83 C26         0.8290    3.9100   -0.9050 c         1 MOL      0.770165
     84 O13         0.8640    2.7930   -0.4100 o         1 MOL     -0.513642
     85 C27        -0.3110    5.8540    0.2350 c3        1 MOL     -0.102669
     86 C28         1.0310    6.5820    0.3420 ca        1 MOL      0.140726
     87 C29         1.7200    6.7940    1.4980 ca        1 MOL     -0.205450
     88 C30         1.4560    7.3420   -0.7550 ca        1 MOL     -0.205450
     89 C31         2.8090    7.6990    1.6470 ca        1 MOL     -0.208171
     90 C32         2.6160    8.1610   -0.7330 ca        1 MOL     -0.208171
     91 C33         3.2720    8.3420    0.4920 ca        1 MOL      0.260822
     92 O14         4.2780    9.2070    0.6360 oh        1 MOL     -0.449974
     93 H37        -1.5460    3.0820   -0.5140 hn        1 MOL      0.241767
     94 H38        -0.6310    5.4210   -1.7340 h1        1 MOL      0.079640
     95 H39        -0.5520    5.3700    1.1760 hc        1 MOL      0.048484
     96 H40        -1.0830    6.6060    0.0450 hc        1 MOL      0.048484
     97 H41         1.4880    6.1910    2.3570 ha        1 MOL      0.126082
     98 H42         0.8880    7.3220   -1.6700 ha        1 MOL      0.126082
     99 H43         3.3510    7.8280    2.5670 ha        1 MOL      0.149337
    100 H44         2.9880    8.6180   -1.6320 ha        1 MOL      0.149337
    101 H45         4.4960    9.4210   -0.2720 ho        1 MOL      0.347705
    102 N10         1.8940    4.3540   -1.5910 n         1 MOL     -0.738712
    103 C34         3.1940    3.6220   -1.6760 c3        1 MOL      0.087622
    104 C35         3.7760    3.5050   -0.2460 c         1 MOL      0.253249
    105 O15         3.4650    4.2770    0.6630 o         1 MOL     -0.424061
    106 C36         4.1510    4.2510   -2.6800 c3        1 MOL      0.339350
    107 C37         4.8390    5.5510   -2.0860 c3        1 MOL     -0.017107
    108 C38         5.2280    3.3270   -3.2620 c3        1 MOL     -0.204386
    109 C39         5.5140    6.3590   -3.1980 c3        1 MOL     -0.442421
    110 H46         1.8340    5.3120   -1.8880 hn        1 MOL      0.285737
    111 H47         2.8360    2.6430   -1.9840 h1        1 MOL      0.078891
    112 H48         3.4910    4.4900   -3.5150 hc        1 MOL     -0.020421
    113 H49         5.6470    5.3680   -1.3780 hc        1 MOL      0.053567
    114 H50         4.0350    6.1520   -1.6710 hc        1 MOL      0.053567
    115 H51         6.0270    3.2480   -2.5290 hc        1 MOL      0.039272
    116 H52         4.7400    2.3920   -3.5550 hc        1 MOL      0.039272
    117 H53         5.5870    3.7680   -4.1830 hc        1 MOL      0.039272
    118 H54         6.3420    5.7620   -3.5750 hc        1 MOL      0.109242
    119 H55         4.8090    6.5690   -3.9980 hc        1 MOL      0.109242
    120 H56         5.9850    7.2570   -2.8130 hc        1 MOL      0.109242
    121 N11         4.5860    2.4650   -0.0450 n         1 MOL     -0.324458
    122 C40         5.4640    2.2080    1.0730 c3        1 MOL      0.117457
    123 C41         5.2490    0.7700    1.5090 c         1 MOL      0.632500
    124 O16         5.0790   -0.1310    0.6690 o         1 MOL     -0.532821
    125 C42         6.9000    2.5790    0.7600 c3        1 MOL     -0.025263
    126 O17         7.4410    1.6490   -0.1510 oh        1 MOL     -0.562865
    127 H57         4.6310    1.8260   -0.8170 hn        1 MOL      0.257378
    128 H58         5.2060    2.8290    1.9400 h1        1 MOL      0.026671
    129 H59         7.5610    2.5440    1.6220 h1        1 MOL      0.071294
    130 H60         6.7980    3.6150    0.4170 h1        1 MOL      0.071294
    131 H61         8.3890    1.5580   -0.0260 ho        1 MOL      0.419892
    132 N12         5.4120    0.5250    2.7950 n         1 MOL     -0.671340
    133 C43         5.3180   -0.7900    3.4530 c3        1 MOL      0.427074
    134 C44         6.1220   -1.8940    2.8050 c         1 MOL      0.369350
    135 O18         5.6480   -3.0450    2.7030 o         1 MOL     -0.439001
    136 C45         3.8310   -1.0650    3.7660 c3        1 MOL     -0.543130
    137 H62         5.5060    1.2870    3.4390 hn        1 MOL      0.324298
    138 H63         5.6960   -0.6670    4.4700 h1        1 MOL      0.015099
    139 H64         3.7190   -1.9760    4.3590 hc        1 MOL      0.138128
    140 H65         3.4680   -0.1610    4.2680 hc        1 MOL      0.138128
    141 H66         3.3590   -1.1750    2.7930 hc        1 MOL      0.138128
    142 N13         7.3580   -1.5530    2.3690 n         1 MOL     -0.614419
    143 C46         8.4210   -2.4390    1.7550 c3        1 MOL      0.359690
    144 C47         8.0350   -3.2290    0.4940 c         1 MOL      0.325535
    145 O19         8.7880   -4.1760    0.1830 o         1 MOL     -0.500423
    146 C48         9.0790   -3.2980    2.8510 c3        1 MOL     -0.148514
    147 H67         7.6990   -0.6330    2.6210 hn        1 MOL      0.288944
    148 H68         9.1960   -1.7430    1.4320 h1        1 MOL      0.012856
    149 H69         9.1250   -2.7720    3.8050 hc        1 MOL      0.043522
    150 H70         8.5880   -4.2450    3.0730 hc        1 MOL      0.043522
    151 H71        10.1060   -3.4630    2.5360 hc        1 MOL      0.043522
    152 N14         6.9990   -2.8340   -0.1990 n         1 MOL     -0.253833
    153 C49         6.4300   -3.5600   -1.3210 c3        1 MOL     -0.117339
    154 C50         7.3740   -3.2860   -2.5090 c         1 MOL      0.507729
    155 O20         7.6790   -4.1560   -3.2890 o         1 MOL     -0.499547
    156 C51         5.0370   -2.9920   -1.4450 c3        1 MOL      0.400874
    157 C52         4.0530   -3.6180   -2.4040 c3        1 MOL     -0.286733
    158 C53         3.7770   -5.1360   -2.3100 c         1 MOL      0.686949
    159 O21         4.6240   -5.9370   -2.6320 o         1 MOL     -0.691177
    160 O22         2.7600   -5.5110   -1.7010 o         1 MOL     -0.691177
    161 H72         6.4220   -2.1590    0.2790 hn        1 MOL      0.164361
    162 H73         6.3000   -4.6330   -1.1860 h1        1 MOL      0.169673
    163 H74         5.1020   -1.9170   -1.6400 hc        1 MOL     -0.040285
    164 H75         4.6480   -2.9910   -0.4190 hc        1 MOL     -0.040285
    165 H76         4.5370   -3.2610   -3.3210 hc        1 MOL     -0.017953
    166 H77         3.1100   -3.1160   -2.2180 hc        1 MOL     -0.017953
    167 N15         7.8320   -2.0230   -2.5870 n         1 MOL     -0.305815
    168 C54         8.9750   -1.7340   -3.4780 c3        1 MOL     -0.194611
    169 H78         9.5050   -2.6600   -3.7020 h1        1 MOL      0.093387
    170 H79         8.6110   -1.2920   -4.4060 h1        1 MOL      0.093387
    171 H80         9.6540   -1.0380   -2.9850 h1        1 MOL      0.093387
    172 H81         7.4630   -1.3260   -1.9590 hn        1 MOL      0.202708
    173 Ca1        -1.5440   -1.9680    4.9560 Ca        1 MOL      1.780379
    174 O23        -3.9020   -0.8980    4.3210 oh        1 MOL     -0.833075
    175 H82        -4.1150    0.0260    4.2040 ho        1 MOL      0.412901
    176 H83        -4.6020   -1.3770    3.8840 ho        1 MOL      0.412901
    177 O24        -0.6160   -3.4260    7.1670 oh        1 MOL     -0.833075
    178 H84        -0.5290   -3.5270    8.1180 ho        1 MOL      0.412901
    179 H85         0.0610   -4.0000    6.8050 ho        1 MOL      0.412901
    180 O25        -2.6330   -1.4640    7.3900 oh        1 MOL     -0.833075
    181 H86        -2.1840   -1.0140    8.1150 ho        1 MOL      0.412901
    182 H87        -3.0510   -2.2190    7.7980 ho        1 MOL      0.412901
    183 O26        -1.7920    0.9760    5.3070 oh        1 MOL     -0.833075
    184 H88        -2.0940    1.3360    6.1440 ho        1 MOL      0.412901
    185 H89        -1.3270    1.7030    4.8930 ho        1 MOL      0.412901
    186 O27         0.8230   -1.0650    5.8090 oh        1 MOL     -0.833075
    187 H90         1.4420   -0.6300    5.2340 ho        1 MOL      0.412901
    188 H91         1.1390   -0.8640    6.6960 ho        1 MOL      0.412901
    189 O28         0.2340   -3.4320    3.7290 oh        1 MOL     -0.833075
    190 H92         0.4790   -3.7700    2.8680 ho        1 MOL      0.412901
    191 H93         0.8700   -3.8110    4.3380 ho        1 MOL      0.412901
    192 O29        -0.7130   -0.2000    3.0560 oh        1 MOL     -0.833075
    193 H94        -0.8890    0.7290    2.9410 ho        1 MOL      0.412901
    194 H95         0.0770   -0.3710    2.5520 ho        1 MOL      0.412901
@<TRIPOS>BOND
     1    1    2 1   
     2    1    4 1   
     3    1    5 1   
     4    1    6 1   
     5    2    3 2   
     6    2    7 1   
     7    7    8 1   
     8    7   15 1   
     9    8    9 1   
    10    8   11 1   
    11    8   16 1   
    12    9   10 2   
    13    9   19 1   
    14   11   12 1   
    15   11   17 1   
    16   11   18 1   
    17   12   13 1   
    18   12   14 1   
    19   19   20 1   
    20   19   28 1   
    21   20   21 1   
    22   20   23 1   
    23   20   29 1   
    24   21   22 2   
    25   21   41 1   
    26   23   24 1   
    27   23   30 1   
    28   23   31 1   
    29   24   25 1   
    30   24   32 1   
    31   24   33 1   
    32   25   26 1   
    33   25   34 1   
    34   25   35 1   
    35   26   27 1   
    36   26   36 1   
    37   26   37 1   
    38   27   38 1   
    39   27   39 1   
    40   27   40 1   
    41   41   42 1   
    42   41   49 1   
    43   42   43 1   
    44   42   45 1   
    45   42   50 1   
    46   43   44 2   
    47   43   53 1   
    48   45   46 1   
    49   45   51 1   
    50   45   52 1   
    51   46   47 1   
    52   46   48 1   
    53   53   54 1   
    54   53   57 1   
    55   54   55 1   
    56   54   58 1   
    57   54   59 1   
    58   55   56 2   
    59   55   60 1   
    60   60   61 1   
    61   60   68 1   
    62   61   62 1   
    63   61   64 1   
    64   61   69 1   
    65   62   63 2   
    66   62   74 1   
    67   64   65 1   
    68   64   70 1   
    69   64   71 1   
    70   65   66 1   
    71   65   67 2   
    72   66   72 1   
    73   66   73 1   
    74   74   75 1   
    75   74   78 1   
    76   75   76 1   
    77   75   79 1   
    78   75   80 1   
    79   76   77 2   
    80   76   81 1   
    81   81   82 1   
    82   81   93 1   
    83   82   83 1   
    84   82   85 1   
    85   82   94 1   
    86   83   84 2   
    87   83  102 1   
    88   85   86 1   
    89   85   95 1   
    90   85   96 1   
    91   86   87 ar  
    92   86   88 ar  
    93   87   89 ar  
    94   87   97 1   
    95   88   90 ar  
    96   88   98 1   
    97   89   91 ar  
    98   89   99 1   
    99   90   91 ar  
   100   90  100 1   
   101   91   92 1   
   102   92  101 1   
   103  102  103 1   
   104  102  110 1   
   105  103  104 1   
   106  103  106 1   
   107  103  111 1   
   108  104  105 2   
   109  104  121 1   
   110  106  107 1   
   111  106  108 1   
   112  106  112 1   
   113  107  109 1   
   114  107  113 1   
   115  107  114 1   
   116  108  115 1   
   117  108  116 1   
   118  108  117 1   
   119  109  118 1   
   120  109  119 1   
   121  109  120 1   
   122  121  122 1   
   123  121  127 1   
   124  122  123 1   
   125  122  125 1   
   126  122  128 1   
   127  123  124 2   
   128  123  132 1   
   129  125  126 1   
   130  125  129 1   
   131  125  130 1   
   132  126  131 1   
   133  132  133 1   
   134  132  137 1   
   135  133  134 1   
   136  133  136 1   
   137  133  138 1   
   138  134  135 2   
   139  134  142 1   
   140  136  139 1   
   141  136  140 1   
   142  136  141 1   
   143  142  143 1   
   144  142  147 1   
   145  143  144 1   
   146  143  146 1   
   147  143  148 1   
   148  144  145 2   
   149  144  152 1   
   150  146  149 1   
   151  146  150 1   
   152  146  151 1   
   153  152  153 1   
   154  152  161 1   
   155  153  154 1   
   156  153  156 1   
   157  153  162 1   
   158  154  155 2   
   159  154  167 1   
   160  156  157 1   
   161  156  163 1   
   162  156  164 1   
   163  157  158 1   
   164  157  165 1   
   165  157  166 1   
   166  158  159 1   
   167  158  160 1   
   168  167  168 1   
   169  167  172 1   
   170  168  169 1   
   171  168  170 1   
   172  168  171 1   
   173  174  175 1   
   174  174  176 1   
   175  177  178 1   
   176  177  179 1   
   177  180  181 1   
   178  180  182 1   
   179  183  184 1   
   180  183  185 1   
   181  186  187 1   
   182  186  188 1   
   183  189  190 1   
   184  189  191 1   
   185  192  193 1   
   186  192  194 1   
@<TRIPOS>SUBSTRUCTURE
     1 MOL         1 TEMP              0 ****  ****    0 ROOT
