@<TRIPOS>MOLECULE
MOL
  192   187     1     0     0
SMALL
resp


@<TRIPOS>ATOM
      1 C1          5.1260   -5.5670   -3.1850 c3        1 MOL     -0.252019
      2 C2          4.6740   -4.3680   -2.3010 c         1 MOL      0.727403
      3 O1          4.1330   -4.4810   -1.1930 o         1 MOL     -0.590787
      4 H1          5.8430   -6.1750   -2.6320 hc        1 MOL      0.065538
      5 H2          4.2600   -6.1750   -3.4450 hc        1 MOL      0.065538
      6 H3          5.5940   -5.1910   -4.0950 hc        1 MOL      0.065538
      7 N1          5.0420   -3.1530   -2.7700 n         1 MOL     -0.522776
      8 C3          4.6790   -1.9090   -2.0590 c3        1 MOL      0.036244
      9 C4          3.2070   -1.5430   -1.8270 c         1 MOL     -0.023719
     10 O2          2.9790   -0.5310   -1.1570 o         1 MOL     -0.032599
     11 C5          5.4320   -0.7400   -2.6370 c3        1 MOL     -0.030362
     12 C6          5.5250   -0.7140   -4.1380 c         1 MOL      0.632240
     13 O3          4.7650    0.0240   -4.7610 o         1 MOL     -0.677182
     14 O4          6.4760   -1.3600   -4.7030 o         1 MOL     -0.677182
     15 H4          5.6130   -3.1390   -3.6040 hn        1 MOL      0.295734
     16 H5          5.0240   -2.0380   -1.0400 h1        1 MOL      0.117782
     17 H6          6.4030   -0.5640   -2.1830 hc        1 MOL      0.038677
     18 H7          4.8100    0.1130   -2.3560 hc        1 MOL      0.038677
     19 N2          2.2380   -2.3790   -2.2920 n         1 MOL     -0.007728
     20 C7          0.8520   -2.0680   -2.2560 c3        1 MOL      0.073986
     21 C8          0.2190   -3.1130   -1.3260 c         1 MOL      0.438165
     22 O5          0.5460   -4.3040   -1.4930 o         1 MOL     -0.530230
     23 C9          0.2650   -2.1890   -3.7240 c3        1 MOL     -0.066384
     24 C10         0.2810   -0.8900   -4.5390 c3        1 MOL     -0.013214
     25 C11         1.7380   -0.4480   -4.9270 c3        1 MOL      0.115201
     26 C12         1.6320    0.7580   -5.9040 c3        1 MOL      0.107107
     27 N3          2.9430    0.9530   -6.5950 n4        1 MOL     -0.417003
     28 H8          2.5470   -3.1760   -2.8410 hn        1 MOL      0.191070
     29 H9          0.6320   -1.0780   -1.8420 h1        1 MOL     -0.118397
     30 H10        -0.7850   -2.4400   -3.6170 hc        1 MOL      0.048707
     31 H11         0.7920   -2.9640   -4.2960 hc        1 MOL      0.048707
     32 H12        -0.1390   -0.0560   -3.9850 hc        1 MOL     -0.002599
     33 H13        -0.2650   -1.0390   -5.4660 hc        1 MOL     -0.002599
     34 H14         2.2720   -1.2770   -5.3860 hc        1 MOL     -0.027406
     35 H15         2.3170   -0.1020   -4.0680 hc        1 MOL     -0.027406
     36 H16         1.2780    1.6370   -5.3600 hx        1 MOL      0.045588
     37 H17         0.9210    0.4960   -6.6930 hx        1 MOL      0.045588
     38 H18         2.9330    1.8470   -7.0700 hn        1 MOL      0.314866
     39 H19         3.6940    0.8100   -5.9370 hn        1 MOL      0.314866
     40 H20         3.1470    0.2090   -7.2420 hn        1 MOL      0.314866
     41 N4         -0.6240   -2.8020   -0.3050 n         1 MOL     -0.389449
     42 C13        -1.2950   -1.4890   -0.0310 c3        1 MOL      0.067429
     43 C14        -1.8130   -0.7550   -1.2520 c         1 MOL      0.585592
     44 O6         -1.3510    0.3570   -1.5620 o         1 MOL     -0.561197
     45 C15        -0.3060   -0.6640    0.8260 c3        1 MOL      0.091730
     46 C16         0.1180   -1.4000    2.0860 c         1 MOL      0.567033
     47 O7         -0.5410   -2.3380    2.6120 o         1 MOL     -0.722704
     48 O8          1.0270   -0.8800    2.7090 o         1 MOL     -0.722704
     49 H21        -0.8560   -3.6120    0.2520 hn        1 MOL      0.282867
     50 H22        -2.1550   -1.6790    0.6240 h1        1 MOL      0.004875
     51 H23        -0.6950    0.3190    1.0900 hc        1 MOL     -0.003297
     52 H24         0.6160   -0.4620    0.2800 hc        1 MOL     -0.003297
     53 N5         -2.7940   -1.2760   -1.9570 n         1 MOL     -0.440779
     54 C17        -3.6230   -2.4130   -1.4150 c3        1 MOL      0.100543
     55 C18        -4.5640   -3.0440   -2.4970 c         1 MOL      0.464406
     56 O9         -4.3850   -2.7510   -3.7080 o         1 MOL     -0.547957
     57 H25        -3.2120   -0.7330   -2.6970 hn        1 MOL      0.319329
     58 H26        -4.2170   -1.9970   -0.5950 h1        1 MOL      0.027195
     59 H27        -2.9720   -3.1850   -1.0100 h1        1 MOL      0.027195
     60 N6         -5.5990   -3.7710   -2.2080 n         1 MOL     -0.497033
     61 C19        -5.9950   -4.0490   -0.7970 c3        1 MOL      0.267509
     62 C20        -6.9660   -3.0110   -0.2140 c         1 MOL      0.550452
     63 O10        -7.4240   -2.1630   -1.0070 o         1 MOL     -0.491860
     64 C21        -6.6100   -5.4320   -0.6920 c3        1 MOL     -0.218525
     65 C22        -7.6650   -5.7670   -1.7530 c         1 MOL      0.671209
     66 O11        -8.8170   -5.9690   -1.2970 o         1 MOL     -0.641874
     67 O12        -7.4560   -5.6280   -2.9720 o         1 MOL     -0.641874
     68 H28        -6.2140   -4.0900   -2.9350 hn        1 MOL      0.351239
     69 H29        -5.1420   -4.0460   -0.1090 h1        1 MOL     -0.057114
     70 H30        -6.9640   -5.6400    0.3150 hc        1 MOL      0.014441
     71 H31        -5.7310   -6.0350   -0.9190 hc        1 MOL      0.014441
     72 N7         -7.1810   -2.9860    1.0790 n         1 MOL     -0.409490
     73 C23        -8.0770   -1.9620    1.6820 c3        1 MOL     -0.136427
     74 C24        -7.6390   -0.5150    1.6020 c         1 MOL      0.500115
     75 O13        -8.5080    0.3260    1.6790 o         1 MOL     -0.533743
     76 H32        -6.6600   -3.6420    1.6490 hn        1 MOL      0.271829
     77 H33        -8.2940   -2.2530    2.7080 h1        1 MOL      0.119836
     78 H34        -9.0580   -2.0570    1.2230 h1        1 MOL      0.119836
     79 N8         -6.3460   -0.2430    1.4940 n         1 MOL     -0.367018
     80 C25        -5.8540    1.2140    1.7120 c3        1 MOL      0.163385
     81 C26        -5.6330    1.8440    0.3010 c         1 MOL      0.527050
     82 O14        -5.5120    1.1810   -0.7380 o         1 MOL     -0.481909
     83 C27        -4.6210    1.3220    2.6250 c3        1 MOL      0.009614
     84 C28        -3.3590    0.5060    2.2430 c3        1 MOL     -0.323715
     85 O15        -4.8540    0.8250    3.9670 oh        1 MOL     -0.589957
     86 H35        -5.7460   -1.0440    1.6400 hn        1 MOL      0.221529
     87 H36        -6.6440    1.8300    2.1350 h1        1 MOL      0.023646
     88 H37        -4.2950    2.3570    2.6760 h1        1 MOL      0.082713
     89 H38        -5.5310    1.3740    4.3560 ho        1 MOL      0.385506
     90 H39        -3.3500   -0.5340    2.5370 hc        1 MOL      0.137991
     91 H40        -2.9640    0.6350    1.2340 hc        1 MOL      0.137991
     92 H41        -2.6440    1.0660    2.8510 hc        1 MOL      0.137991
     93 N9         -5.5450    3.1530    0.3160 n         1 MOL     -0.353085
     94 C29        -5.1830    4.0040   -0.8290 c3        1 MOL     -0.086280
     95 C30        -3.6640    4.3960   -0.8880 c         1 MOL      0.510265
     96 O16        -3.1150    4.6600   -1.9630 o         1 MOL     -0.543270
     97 C31        -6.0790    5.2750   -0.9750 c3        1 MOL      0.106433
     98 C32        -5.7620    6.3310    0.0770 c3        1 MOL      0.292676
     99 C33        -7.5420    4.7800   -1.1010 c3        1 MOL     -0.119109
    100 C34        -6.5210    7.6230   -0.2890 c3        1 MOL     -0.192812
    101 H42        -5.5660    3.5550    1.2420 hn        1 MOL      0.206596
    102 H43        -5.3810    3.5050   -1.7830 h1        1 MOL      0.116793
    103 H44        -5.8530    5.8400   -1.8790 hc        1 MOL     -0.006616
    104 H45        -4.6990    6.5750    0.1700 hc        1 MOL     -0.098491
    105 H46        -6.1980    5.9470    0.9960 hc        1 MOL     -0.098491
    106 H47        -8.2700    5.5860   -1.2210 hc        1 MOL      0.036759
    107 H48        -7.7330    4.1180   -1.9460 hc        1 MOL      0.036759
    108 H49        -7.8040    4.2260   -0.1930 hc        1 MOL      0.036759
    109 H50        -6.2530    7.9190   -1.3080 hc        1 MOL      0.036780
    110 H51        -7.5840    7.3920   -0.1760 hc        1 MOL      0.036780
    111 H52        -6.3050    8.5070    0.3210 hc        1 MOL      0.036780
    112 N10        -3.0350    4.4550    0.2660 n         1 MOL     -0.305269
    113 C35        -1.6690    4.8650    0.4170 c3        1 MOL      0.088038
    114 C36        -0.6410    3.7350    0.2770 c         1 MOL      0.566303
    115 O17        -0.9940    2.6450    0.7610 o         1 MOL     -0.543877
    116 C37        -1.4520    5.5730    1.7440 c3        1 MOL      0.447128
    117 C38        -2.4990    6.6230    2.1220 c3        1 MOL     -0.322484
    118 O18        -0.1830    6.1860    1.8290 oh        1 MOL     -0.642884
    119 H53        -3.5820    4.1640    1.0730 hn        1 MOL      0.164096
    120 H54        -1.4850    5.6290   -0.3420 h1        1 MOL      0.059310
    121 H55        -1.5380    4.7050    2.4070 h1        1 MOL     -0.069724
    122 H56         0.0270    6.1900    2.7720 ho        1 MOL      0.395682
    123 H57        -2.0670    7.1180    2.9890 hc        1 MOL      0.073178
    124 H58        -2.6530    7.2440    1.2360 hc        1 MOL      0.073178
    125 H59        -3.4630    6.1960    2.4480 hc        1 MOL      0.073178
    126 N11         0.5160    3.9200   -0.3770 n         1 MOL     -0.668059
    127 C39         1.4930    2.8550   -0.7390 c3        1 MOL      0.258703
    128 C40         3.0270    3.1570   -0.4040 c         1 MOL      0.500635
    129 O19         3.4350    4.2890   -0.2150 o         1 MOL     -0.583565
    130 C41         1.4860    2.5680   -2.2500 c3        1 MOL      0.564268
    131 C42         2.0310    3.5180   -3.3670 c3        1 MOL     -0.525479
    132 O20         0.1730    2.4140   -2.5720 oh        1 MOL     -0.625557
    133 H60         0.7240    4.8660   -0.6600 hn        1 MOL      0.328635
    134 H61         1.2600    1.9450   -0.1810 h1        1 MOL      0.035188
    135 H62         1.9610    1.5970   -2.3830 h1        1 MOL     -0.074897
    136 H63        -0.1450    1.6010   -2.1830 ho        1 MOL      0.415989
    137 H64         1.7220    4.5420   -3.1520 hc        1 MOL      0.123890
    138 H65         3.1210    3.4380   -3.2740 hc        1 MOL      0.123890
    139 H66         1.7440    3.3160   -4.3970 hc        1 MOL      0.123890
    140 N12         3.7550    2.0570   -0.1570 n         1 MOL     -0.333609
    141 C43         5.0900    2.0880    0.5370 c3        1 MOL      0.014334
    142 C44         5.5360    0.8520    1.3780 c         1 MOL      0.492388
    143 O21         6.3360    1.0380    2.2900 o         1 MOL     -0.599005
    144 C45         6.1570    2.3310   -0.5290 c3        1 MOL     -0.024063
    145 C46         7.4370    3.0570   -0.1010 c3        1 MOL     -0.000125
    146 C47         7.1770    4.4350    0.4350 c3        1 MOL     -0.010140
    147 C48         8.4500    5.3640    0.3480 c3        1 MOL      0.043172
    148 N13         8.1800    6.7200    0.8390 n4        1 MOL     -0.270409
    149 H67         3.3640    1.1810   -0.4400 hn        1 MOL     -0.030757
    150 H68         5.1680    2.9510    1.2060 h1        1 MOL      0.090416
    151 H69         5.6890    2.8460   -1.3670 hc        1 MOL      0.010135
    152 H70         6.4540    1.3700   -0.9420 hc        1 MOL      0.010135
    153 H71         8.0700    3.1450   -0.9810 hc        1 MOL      0.027006
    154 H72         7.9040    2.6760    0.8070 hc        1 MOL      0.027006
    155 H73         6.8190    4.5230    1.4500 hc        1 MOL      0.033635
    156 H74         6.3360    4.8790   -0.0980 hc        1 MOL      0.033635
    157 H75         8.7690    5.4340   -0.6910 hx        1 MOL      0.066106
    158 H76         9.2910    4.8810    0.8470 hx        1 MOL      0.066106
    159 H77         7.8420    6.7510    1.7840 hn        1 MOL      0.268349
    160 H78         9.0060    7.2990    0.8600 hn        1 MOL      0.268349
    161 H79         7.4410    7.1830    0.3240 hn        1 MOL      0.268349
    162 N14         4.8710   -0.2900    1.1910 n         1 MOL     -0.125545
    163 C49         5.1390   -1.4680    2.0940 c3        1 MOL     -0.040269
    164 C50         6.5340   -2.0510    1.7660 c         1 MOL      0.367256
    165 O22         6.8650   -2.4280    0.5940 o         1 MOL     -0.503719
    166 C51         4.0920   -2.5530    1.9020 c3        1 MOL     -0.007683
    167 C52         4.2540   -3.6880    2.8630 c3        1 MOL     -0.199017
    168 C53         4.1410   -3.4150    4.3450 c         1 MOL      0.366957
    169 O23         3.4030   -2.5450    4.8360 o         1 MOL     -0.641075
    170 O24         4.7910   -4.2190    5.1180 o         1 MOL     -0.641075
    171 H80         4.4160   -0.5010    0.3150 hn        1 MOL      0.054443
    172 H81         5.0450   -1.0300    3.0900 h1        1 MOL      0.102067
    173 H82         4.1440   -2.9490    0.8910 hc        1 MOL      0.016231
    174 H83         3.1200   -2.1290    2.1430 hc        1 MOL      0.016231
    175 H84         5.0710   -4.3610    2.6030 hc        1 MOL      0.120980
    176 H85         3.4660   -4.3960    2.5750 hc        1 MOL      0.120980
    177 N15         7.3210   -2.2110    2.8020 n         1 MOL     -0.155073
    178 C54         8.6430   -2.7210    2.8410 c3        1 MOL     -0.158984
    179 H86         8.7340   -3.4310    3.6630 h1        1 MOL      0.080419
    180 H87         8.8670   -3.2240    1.9000 h1        1 MOL      0.080419
    181 H88         9.3450   -1.9010    2.9920 h1        1 MOL      0.080419
    182 H89         7.0390   -1.8180    3.6820 hn        1 MOL      0.282841
    183 Ca1         0.8590   -2.3230    4.8590 Ca        1 MOL      1.743916
    184 O25         1.6950   -0.4160    6.5810 oh        1 MOL     -0.868594
    185 H90         2.2220    0.3810    6.6210 ho        1 MOL      0.433058
    186 H91         1.6850   -0.7460    7.4810 ho        1 MOL      0.433058
    187 O26        -1.5470   -3.8680    5.0830 oh        1 MOL     -0.868594
    188 H92        -1.7240   -4.5650    4.4490 ho        1 MOL      0.433058
    189 H93        -2.3640   -3.7480    5.5490 ho        1 MOL      0.433058
    190 O27        -1.4050   -0.7380    5.4150 oh        1 MOL     -0.868594
    191 H94        -2.1260   -0.8800    6.0230 ho        1 MOL      0.433058
    192 H95        -1.3190    0.2130    5.3670 ho        1 MOL      0.433058
@<TRIPOS>BOND
     1    1    2 1   
     2    1    4 1   
     3    1    5 1   
     4    1    6 1   
     5    2    3 2   
     6    2    7 1   
     7    7    8 1   
     8    7   15 1   
     9    8    9 1   
    10    8   11 1   
    11    8   16 1   
    12    9   10 2   
    13    9   19 1   
    14   11   12 1   
    15   11   17 1   
    16   11   18 1   
    17   12   13 1   
    18   12   14 1   
    19   19   20 1   
    20   19   28 1   
    21   20   21 1   
    22   20   23 1   
    23   20   29 1   
    24   21   22 2   
    25   21   41 1   
    26   23   24 1   
    27   23   30 1   
    28   23   31 1   
    29   24   25 1   
    30   24   32 1   
    31   24   33 1   
    32   25   26 1   
    33   25   34 1   
    34   25   35 1   
    35   26   27 1   
    36   26   36 1   
    37   26   37 1   
    38   27   38 1   
    39   27   39 1   
    40   27   40 1   
    41   41   42 1   
    42   41   49 1   
    43   42   43 1   
    44   42   45 1   
    45   42   50 1   
    46   43   44 2   
    47   43   53 1   
    48   45   46 1   
    49   45   51 1   
    50   45   52 1   
    51   46   47 1   
    52   46   48 1   
    53   53   54 1   
    54   53   57 1   
    55   54   55 1   
    56   54   58 1   
    57   54   59 1   
    58   55   56 2   
    59   55   60 1   
    60   60   61 1   
    61   60   68 1   
    62   61   62 1   
    63   61   64 1   
    64   61   69 1   
    65   62   63 2   
    66   62   72 1   
    67   64   65 1   
    68   64   70 1   
    69   64   71 1   
    70   65   66 1   
    71   65   67 1   
    72   72   73 1   
    73   72   76 1   
    74   73   74 1   
    75   73   77 1   
    76   73   78 1   
    77   74   75 2   
    78   74   79 1   
    79   79   80 1   
    80   79   86 1   
    81   80   81 1   
    82   80   83 1   
    83   80   87 1   
    84   81   82 2   
    85   81   93 1   
    86   83   84 1   
    87   83   85 1   
    88   83   88 1   
    89   84   90 1   
    90   84   91 1   
    91   84   92 1   
    92   85   89 1   
    93   93   94 1   
    94   93  101 1   
    95   94   95 1   
    96   94   97 1   
    97   94  102 1   
    98   95   96 2   
    99   95  112 1   
   100   97   98 1   
   101   97   99 1   
   102   97  103 1   
   103   98  100 1   
   104   98  104 1   
   105   98  105 1   
   106   99  106 1   
   107   99  107 1   
   108   99  108 1   
   109  100  109 1   
   110  100  110 1   
   111  100  111 1   
   112  112  113 1   
   113  112  119 1   
   114  113  114 1   
   115  113  116 1   
   116  113  120 1   
   117  114  115 2   
   118  114  126 1   
   119  116  117 1   
   120  116  118 1   
   121  116  121 1   
   122  117  123 1   
   123  117  124 1   
   124  117  125 1   
   125  118  122 1   
   126  126  127 1   
   127  126  133 1   
   128  127  128 1   
   129  127  130 1   
   130  127  134 1   
   131  128  129 2   
   132  128  140 1   
   133  130  131 1   
   134  130  132 1   
   135  130  135 1   
   136  131  137 1   
   137  131  138 1   
   138  131  139 1   
   139  132  136 1   
   140  140  141 1   
   141  140  149 1   
   142  141  142 1   
   143  141  144 1   
   144  141  150 1   
   145  142  143 2   
   146  142  162 1   
   147  144  145 1   
   148  144  151 1   
   149  144  152 1   
   150  145  146 1   
   151  145  153 1   
   152  145  154 1   
   153  146  147 1   
   154  146  155 1   
   155  146  156 1   
   156  147  148 1   
   157  147  157 1   
   158  147  158 1   
   159  148  159 1   
   160  148  160 1   
   161  148  161 1   
   162  162  163 1   
   163  162  171 1   
   164  163  164 1   
   165  163  166 1   
   166  163  172 1   
   167  164  165 2   
   168  164  177 1   
   169  166  167 1   
   170  166  173 1   
   171  166  174 1   
   172  167  168 1   
   173  167  175 1   
   174  167  176 1   
   175  168  169 1   
   176  168  170 1   
   177  177  178 1   
   178  177  182 1   
   179  178  179 1   
   180  178  180 1   
   181  178  181 1   
   182  184  185 1   
   183  184  186 1   
   184  187  188 1   
   185  187  189 1   
   186  190  191 1   
   187  190  192 1   
@<TRIPOS>SUBSTRUCTURE
     1 MOL         1 TEMP              0 ****  ****    0 ROOT
