@<TRIPOS>MOLECULE
MOL
  198   191     1     0     0
SMALL
resp


@<TRIPOS>ATOM
      1 C1         -3.7650   -3.7310    3.9230 c3        1 MOL     -0.461408
      2 C2         -3.0890   -3.1800    2.6670 c         1 MOL      0.782665
      3 O1         -2.3320   -2.2370    2.7710 o         1 MOL     -0.573138
      4 H1         -3.0070   -4.1250    4.6000 hc        1 MOL      0.108035
      5 H2         -4.3160   -2.9330    4.4210 hc        1 MOL      0.108035
      6 H3         -4.4540   -4.5300    3.6460 hc        1 MOL      0.108035
      7 N1         -3.4360   -3.7770    1.5060 n         1 MOL     -0.564797
      8 C3         -2.8100   -3.5490    0.2110 c3        1 MOL      0.273135
      9 C4         -1.3060   -3.6310    0.1260 c         1 MOL      0.573379
     10 O2         -0.7240   -3.0060   -0.7250 o         1 MOL     -0.528241
     11 C5         -3.4050   -2.3630   -0.5300 c3        1 MOL     -0.350266
     12 C6         -4.9590   -2.4700   -0.5180 c         1 MOL      0.765230
     13 O3         -5.4340   -3.2230   -1.3880 o         1 MOL     -0.754161
     14 O4         -5.6840   -1.8440    0.2870 o         1 MOL     -0.754161
     15 H4         -4.2370   -4.3760    1.5730 hn        1 MOL      0.259034
     16 H5         -3.1240   -4.4080   -0.3890 h1        1 MOL     -0.004938
     17 H6         -3.0250   -2.3140   -1.5490 hc        1 MOL      0.101612
     18 H7         -3.1400   -1.5290    0.1180 hc        1 MOL      0.101612
     19 N2         -0.6750   -4.5150    0.8870 n         1 MOL     -0.421828
     20 C7          0.8090   -4.6250    1.0870 c3        1 MOL     -0.016629
     21 C8          1.3840   -5.8680    0.2890 c         1 MOL      0.447589
     22 O5          0.6270   -6.7370   -0.1360 o         1 MOL     -0.561139
     23 C9          1.2940   -4.5440    2.5920 c3        1 MOL      0.070665
     24 C10         0.6980   -5.6630    3.3040 c3        1 MOL      0.131040
     25 C11         0.8920   -3.1460    3.1260 c3        1 MOL     -0.379351
     26 C12         1.2340   -5.7810    4.7330 c3        1 MOL     -0.254128
     27 H8         -1.2570   -5.1740    1.3840 hn        1 MOL      0.183900
     28 H9          1.2110   -3.7930    0.5010 h1        1 MOL      0.088300
     29 H10         2.3780   -4.6520    2.6660 hc        1 MOL      0.085829
     30 H11         1.0320   -6.5470    2.7430 hc        1 MOL     -0.000310
     31 H12        -0.3850   -5.5700    3.2790 hc        1 MOL     -0.000310
     32 H13         1.5510   -2.8100    3.9250 hc        1 MOL      0.091105
     33 H14         0.9410   -2.3160    2.4160 hc        1 MOL      0.091105
     34 H15        -0.0860   -3.1650    3.6020 hc        1 MOL      0.091105
     35 H16         0.7790   -6.6520    5.2150 hc        1 MOL      0.046447
     36 H17         2.3140   -5.8780    4.6170 hc        1 MOL      0.046447
     37 H18         0.9840   -4.8960    5.3000 hc        1 MOL      0.046447
     38 N3          2.6910   -6.0210    0.0210 n         1 MOL     -0.375456
     39 C13         3.7320   -4.9430    0.0810 c3        1 MOL      0.048139
     40 C14         3.7270   -3.8610   -0.9820 c         1 MOL      0.586645
     41 O6          4.2330   -2.8100   -0.7140 o         1 MOL     -0.520731
     42 C15         5.1580   -5.5140    0.2440 c3        1 MOL     -0.310730
     43 C16         5.4980   -6.7890   -0.6300 c         1 MOL      0.771921
     44 O7          6.6400   -7.2350   -0.5040 o         1 MOL     -0.716219
     45 O8          4.6570   -7.3380   -1.3890 o         1 MOL     -0.716219
     46 H19         2.8750   -6.8430   -0.5310 hn        1 MOL      0.254251
     47 H20         3.4090   -4.3790    0.9520 h1        1 MOL     -0.033030
     48 H21         5.2960   -5.8320    1.2730 hc        1 MOL      0.071224
     49 H22         5.9060   -4.7700   -0.0360 hc        1 MOL      0.071224
     50 N4          3.2090   -4.2060   -2.1680 n         1 MOL     -0.328107
     51 C17         3.2000   -3.2690   -3.3780 c3        1 MOL     -0.264223
     52 C18         4.6450   -2.9300   -3.7710 c         1 MOL      0.537381
     53 O9          5.4920   -3.8390   -3.8560 o         1 MOL     -0.530327
     54 H23         3.0510   -5.1960   -2.2690 hn        1 MOL      0.288548
     55 H24         2.5940   -2.3810   -3.2200 h1        1 MOL      0.129727
     56 H25         2.7710   -3.8760   -4.1760 h1        1 MOL      0.129727
     57 N5          4.9180   -1.6300   -3.8760 n         1 MOL     -0.498363
     58 C19         6.2920   -1.0530   -4.1140 c3        1 MOL      0.192109
     59 C20         7.0710   -0.9290   -2.7770 c         1 MOL      0.290737
     60 O10         8.2710   -0.5720   -2.7970 o         1 MOL     -0.549635
     61 C21         6.1890    0.3250   -4.7590 c3        1 MOL     -0.284874
     62 C22         5.2510    1.3420   -4.1240 c         1 MOL      0.716210
     63 O11         4.7120    2.1370   -4.8800 o         1 MOL     -0.692426
     64 O12         5.0250    1.2390   -2.9030 o         1 MOL     -0.692426
     65 H26         4.1320   -1.0390   -3.6470 hn        1 MOL      0.325440
     66 H27         6.8120   -1.7610   -4.7670 h1        1 MOL      0.065739
     67 H28         5.8390    0.1960   -5.7870 hc        1 MOL      0.044387
     68 H29         7.2060    0.7270   -4.7380 hc        1 MOL      0.044387
     69 N6          6.4870   -1.1320   -1.5930 n         1 MOL      0.055693
     70 C23         7.2280   -1.1030   -0.2700 c3        1 MOL     -0.316178
     71 C24         7.4400    0.2980    0.2890 c         1 MOL      0.738884
     72 O13         8.0890    0.5590    1.2750 o         1 MOL     -0.635600
     73 H30         5.5450   -1.4770   -1.5530 hn        1 MOL      0.138300
     74 H31         8.2310   -1.4620   -0.5010 h1        1 MOL      0.120329
     75 H32         6.7390   -1.6880    0.5100 h1        1 MOL      0.120329
     76 N7          6.8280    1.2990   -0.3860 n         1 MOL     -0.463487
     77 C25         6.8510    2.8020   -0.1210 c3        1 MOL      0.074757
     78 C26         6.4790    3.3660    1.2950 c         1 MOL      0.384251
     79 O14         6.1480    4.5560    1.3670 o         1 MOL     -0.506212
     80 C27         8.1880    3.3570   -0.6920 c3        1 MOL     -0.201785
     81 C28         8.3520    3.2410   -2.2250 c3        1 MOL      0.004537
     82 C29         9.4410    4.0740   -2.8310 c         1 MOL      0.665745
     83 N8          9.6200    3.9390   -4.1040 n         1 MOL     -0.839383
     84 O15        10.1780    4.7200   -2.1460 o         1 MOL     -0.600957
     85 H33         6.2960    1.0610   -1.2040 hn        1 MOL      0.196165
     86 H34         6.0110    3.2410   -0.6560 h1        1 MOL      0.133804
     87 H35         9.0190    2.8030   -0.2640 hc        1 MOL      0.075872
     88 H36         8.2400    4.4230   -0.4500 hc        1 MOL      0.075872
     89 H37         7.4060    3.5810   -2.6510 hc        1 MOL      0.050571
     90 H38         8.5570    2.2140   -2.5150 hc        1 MOL      0.050571
     91 H39         9.0860    3.2840   -4.6430 hn        1 MOL      0.362504
     92 H40        10.3920    4.4280   -4.5340 hn        1 MOL      0.362504
     93 N9          6.2130    2.5610    2.3170 n         1 MOL     -0.262596
     94 C30         5.7640    2.9380    3.6770 c3        1 MOL      0.043365
     95 C31         4.2330    3.1800    3.7070 c         1 MOL      0.489623
     96 O16         3.7040    4.1080    4.2840 o         1 MOL     -0.541898
     97 C32         6.1530    1.8730    4.7610 c3        1 MOL      0.417690
     98 C33         7.6620    1.6210    4.9380 c3        1 MOL     -0.481320
     99 C34         5.7330    2.2380    6.1920 c3        1 MOL     -0.481320
    100 H41         6.5520    1.6220    2.2160 hn        1 MOL      0.187622
    101 H42         6.1500    3.9030    4.0080 h1        1 MOL      0.047599
    102 H43         5.6590    0.9560    4.4670 hc        1 MOL     -0.079830
    103 H44         7.8960    0.7380    5.5190 hc        1 MOL      0.110897
    104 H45         8.1240    1.5580    3.9520 hc        1 MOL      0.110897
    105 H46         8.0750    2.5440    5.3380 hc        1 MOL      0.110897
    106 H47         6.1190    3.1910    6.5430 hc        1 MOL      0.110897
    107 H48         4.6460    2.1490    6.2300 hc        1 MOL      0.110897
    108 H49         5.9370    1.3260    6.7700 hc        1 MOL      0.110897
    109 N10         3.4470    2.3630    2.9700 n         1 MOL     -0.306307
    110 C35         2.0030    2.1740    3.0710 c3        1 MOL      0.106143
    111 C36         1.3970    2.4380    1.6640 c         1 MOL      0.619408
    112 O17         2.1560    2.4730    0.6460 o         1 MOL     -0.520356
    113 C37         1.6390    0.7630    3.4840 c3        1 MOL     -0.402337
    114 C38         2.0710    0.3750    4.9050 c         1 MOL      0.639027
    115 N11         2.9190   -0.6470    5.0730 n         1 MOL     -0.658727
    116 O18         1.5500    0.8960    5.9060 o         1 MOL     -0.570810
    117 H50         3.9330    1.6200    2.4820 hn        1 MOL      0.169175
    118 H51         1.4800    2.8560    3.7450 h1        1 MOL      0.077825
    119 H52         2.2040    0.0400    2.9060 hc        1 MOL      0.149310
    120 H53         0.5970    0.4460    3.5500 hc        1 MOL      0.149310
    121 H54         3.3550   -1.0260    4.2500 hn        1 MOL      0.326311
    122 H55         3.2200   -0.8920    6.0120 hn        1 MOL      0.326311
    123 N12         0.0620    2.5950    1.5400 n         1 MOL     -0.649964
    124 C39        -0.7080    2.8570    0.2930 c3        1 MOL      0.208722
    125 C40        -2.0830    3.5170    0.5910 c         1 MOL      0.626731
    126 O19        -2.7230    3.1890    1.5600 o         1 MOL     -0.562616
    127 C41        -0.8620    1.5020   -0.4130 c3        1 MOL     -0.282015
    128 C42        -1.6160    1.5300   -1.7270 ca        1 MOL      0.010227
    129 C43        -2.8950    1.0650   -1.9350 ca        1 MOL     -0.044488
    130 C44        -0.9070    2.0740   -2.8240 ca        1 MOL     -0.044488
    131 C45        -3.5010    1.1220   -3.1950 ca        1 MOL     -0.354651
    132 C46        -1.4930    2.1320   -4.0940 ca        1 MOL     -0.354651
    133 C47        -2.7980    1.6800   -4.3030 ca        1 MOL      0.393322
    134 O20        -3.1890    1.6050   -5.5990 oh        1 MOL     -0.509622
    135 H56        -0.4870    2.5800    2.3910 hn        1 MOL      0.308794
    136 H57        -0.1120    3.5170   -0.3330 h1        1 MOL      0.058689
    137 H58        -1.3830    0.8740    0.3120 hc        1 MOL      0.121925
    138 H59         0.1510    1.1600   -0.6120 hc        1 MOL      0.121925
    139 H60        -3.5350    0.5690   -1.2130 ha        1 MOL      0.142268
    140 H61         0.1200    2.4180   -2.8290 ha        1 MOL      0.142268
    141 H62        -4.5230    0.8100   -3.3240 ha        1 MOL      0.177350
    142 H63        -0.9620    2.6210   -4.8990 ha        1 MOL      0.177350
    143 H64        -3.8640    0.9310   -5.6850 ho        1 MOL      0.354990
    144 N13        -2.5740    4.3810   -0.3290 n         1 MOL     -0.739760
    145 C48        -3.8610    5.0500   -0.2760 c3        1 MOL      0.470000
    146 C49        -4.8080    4.5480   -1.3600 c         1 MOL      0.520983
    147 O21        -4.8330    5.0510   -2.4940 o         1 MOL     -0.572498
    148 C50        -3.6560    6.5550   -0.2530 c3        1 MOL      0.006392
    149 C51        -4.9340    7.3130    0.1830 c3        1 MOL     -0.089982
    150 C52        -4.9550    8.8120   -0.0820 c         1 MOL      0.671427
    151 O22        -4.3820    9.2900   -1.0960 o         1 MOL     -0.681820
    152 O23        -5.6900    9.5260    0.6530 o         1 MOL     -0.681820
    153 H65        -2.0420    4.6840   -1.1480 hn        1 MOL      0.320364
    154 H66        -4.3160    4.8440    0.6900 h1        1 MOL      0.004562
    155 H67        -3.3710    6.8790   -1.2620 hc        1 MOL     -0.019584
    156 H68        -2.8590    6.8740    0.4120 hc        1 MOL     -0.019584
    157 H69        -5.1090    7.1980    1.2570 hc        1 MOL     -0.000980
    158 H70        -5.8240    6.9050   -0.2810 hc        1 MOL     -0.000980
    159 N14        -5.6530    3.5600   -1.1620 n         1 MOL     -0.442845
    160 C53        -5.7360    2.5830   -0.0350 c3        1 MOL     -0.232424
    161 C54        -6.1430    3.1560    1.2750 c         1 MOL      0.566994
    162 O24        -6.8450    4.1410    1.2680 o         1 MOL     -0.548997
    163 C55        -6.6240    1.3330   -0.3690 c3        1 MOL      0.130638
    164 C56        -8.0840    1.7590   -0.5240 c3        1 MOL     -0.381996
    165 C57        -8.8750    0.5080   -0.9500 c         1 MOL      0.753807
    166 O25        -8.9030   -0.5070   -0.2650 o         1 MOL     -0.708294
    167 O26        -9.3850    0.5140   -2.0900 o         1 MOL     -0.708294
    168 H71        -6.2390    3.2540   -1.9330 hn        1 MOL      0.304123
    169 H72        -4.7430    2.1470    0.1050 h1        1 MOL      0.053332
    170 H73        -6.5550    0.5800    0.4210 hc        1 MOL      0.011191
    171 H74        -6.4020    0.8490   -1.3200 hc        1 MOL      0.011191
    172 H75        -8.1180    2.4620   -1.3470 hc        1 MOL      0.106495
    173 H76        -8.4240    2.1770    0.4290 hc        1 MOL      0.106495
    174 N15        -5.6430    2.6000    2.3570 n         1 MOL     -0.157548
    175 C58        -5.8680    2.8320    3.7630 c3        1 MOL     -0.399092
    176 H77        -5.0520    2.3940    4.3380 h1        1 MOL      0.140322
    177 H78        -5.9100    3.9040    3.9530 h1        1 MOL      0.140322
    178 H79        -6.8110    2.3720    4.0610 h1        1 MOL      0.140322
    179 H80        -5.0680    1.8120    2.1200 hn        1 MOL      0.235856
    180 Ca1        -7.8970   -2.8540   -0.5510 Ca        1 MOL      1.665564
    181 O27        -7.5610   -5.1550    0.5910 oh        1 MOL     -0.802231
    182 H81        -6.8280   -5.5800    0.1400 ho        1 MOL      0.384231
    183 H82        -8.1160   -5.8880    0.8750 ho        1 MOL      0.384231
    184 O28       -10.4010   -3.3400    0.4600 oh        1 MOL     -0.802231
    185 H83       -10.9440   -2.5700    0.6210 ho        1 MOL      0.384231
    186 H84       -10.8930   -4.0660    0.8550 ho        1 MOL      0.384231
    187 O29        -8.0630   -2.3370    2.3180 oh        1 MOL     -0.802231
    188 H85        -7.5250   -2.6970    3.0250 ho        1 MOL      0.384231
    189 H86        -8.1300   -1.4020    2.5150 ho        1 MOL      0.384231
    190 O30        -7.0860   -1.3080   -2.8230 oh        1 MOL     -0.802231
    191 H87        -7.5200   -0.6050   -3.3090 ho        1 MOL      0.384231
    192 H88        -6.7490   -1.8930   -3.5060 ho        1 MOL      0.384231
    193 O31        -9.9840   -2.3780   -2.3760 oh        1 MOL     -0.802231
    194 H89        -9.4040   -2.2080   -3.1160 ho        1 MOL      0.384231
    195 H90       -10.2840   -1.5130   -2.0980 ho        1 MOL      0.384231
    196 O32        -8.0370   -4.5960   -2.6850 oh        1 MOL     -0.802231
    197 H91        -8.5580   -4.7370   -3.4730 ho        1 MOL      0.384231
    198 H92        -7.6940   -5.4540   -2.4630 ho        1 MOL      0.384231
@<TRIPOS>BOND
     1    1    2 1   
     2    1    4 1   
     3    1    5 1   
     4    1    6 1   
     5    2    3 2   
     6    2    7 1   
     7    7    8 1   
     8    7   15 1   
     9    8    9 1   
    10    8   11 1   
    11    8   16 1   
    12    9   10 2   
    13    9   19 1   
    14   11   12 1   
    15   11   17 1   
    16   11   18 1   
    17   12   13 1   
    18   12   14 1   
    19   19   20 1   
    20   19   27 1   
    21   20   21 1   
    22   20   23 1   
    23   20   28 1   
    24   21   22 2   
    25   21   38 1   
    26   23   24 1   
    27   23   25 1   
    28   23   29 1   
    29   24   26 1   
    30   24   30 1   
    31   24   31 1   
    32   25   32 1   
    33   25   33 1   
    34   25   34 1   
    35   26   35 1   
    36   26   36 1   
    37   26   37 1   
    38   38   39 1   
    39   38   46 1   
    40   39   40 1   
    41   39   42 1   
    42   39   47 1   
    43   40   41 2   
    44   40   50 1   
    45   42   43 1   
    46   42   48 1   
    47   42   49 1   
    48   43   44 1   
    49   43   45 1   
    50   50   51 1   
    51   50   54 1   
    52   51   52 1   
    53   51   55 1   
    54   51   56 1   
    55   52   53 2   
    56   52   57 1   
    57   57   58 1   
    58   57   65 1   
    59   58   59 1   
    60   58   61 1   
    61   58   66 1   
    62   59   60 2   
    63   59   69 1   
    64   61   62 1   
    65   61   67 1   
    66   61   68 1   
    67   62   63 1   
    68   62   64 1   
    69   69   70 1   
    70   69   73 1   
    71   70   71 1   
    72   70   74 1   
    73   70   75 1   
    74   71   72 2   
    75   71   76 1   
    76   76   77 1   
    77   76   85 1   
    78   77   78 1   
    79   77   80 1   
    80   77   86 1   
    81   78   79 2   
    82   78   93 1   
    83   80   81 1   
    84   80   87 1   
    85   80   88 1   
    86   81   82 1   
    87   81   89 1   
    88   81   90 1   
    89   82   83 1   
    90   82   84 2   
    91   83   91 1   
    92   83   92 1   
    93   93   94 1   
    94   93  100 1   
    95   94   95 1   
    96   94   97 1   
    97   94  101 1   
    98   95   96 2   
    99   95  109 1   
   100   97   98 1   
   101   97   99 1   
   102   97  102 1   
   103   98  103 1   
   104   98  104 1   
   105   98  105 1   
   106   99  106 1   
   107   99  107 1   
   108   99  108 1   
   109  109  110 1   
   110  109  117 1   
   111  110  111 1   
   112  110  113 1   
   113  110  118 1   
   114  111  112 2   
   115  111  123 1   
   116  113  114 1   
   117  113  119 1   
   118  113  120 1   
   119  114  115 1   
   120  114  116 2   
   121  115  121 1   
   122  115  122 1   
   123  123  124 1   
   124  123  135 1   
   125  124  125 1   
   126  124  127 1   
   127  124  136 1   
   128  125  126 2   
   129  125  144 1   
   130  127  128 1   
   131  127  137 1   
   132  127  138 1   
   133  128  129 ar  
   134  128  130 ar  
   135  129  131 ar  
   136  129  139 1   
   137  130  132 ar  
   138  130  140 1   
   139  131  133 ar  
   140  131  141 1   
   141  132  133 ar  
   142  132  142 1   
   143  133  134 1   
   144  134  143 1   
   145  144  145 1   
   146  144  153 1   
   147  145  146 1   
   148  145  148 1   
   149  145  154 1   
   150  146  147 2   
   151  146  159 1   
   152  148  149 1   
   153  148  155 1   
   154  148  156 1   
   155  149  150 1   
   156  149  157 1   
   157  149  158 1   
   158  150  151 1   
   159  150  152 1   
   160  159  160 1   
   161  159  168 1   
   162  160  161 1   
   163  160  163 1   
   164  160  169 1   
   165  161  162 2   
   166  161  174 1   
   167  163  164 1   
   168  163  170 1   
   169  163  171 1   
   170  164  165 1   
   171  164  172 1   
   172  164  173 1   
   173  165  166 1   
   174  165  167 1   
   175  174  175 1   
   176  174  179 1   
   177  175  176 1   
   178  175  177 1   
   179  175  178 1   
   180  181  182 1   
   181  181  183 1   
   182  184  185 1   
   183  184  186 1   
   184  187  188 1   
   185  187  189 1   
   186  190  191 1   
   187  190  192 1   
   188  193  194 1   
   189  193  195 1   
   190  196  197 1   
   191  196  198 1   
@<TRIPOS>SUBSTRUCTURE
     1 MOL         1 TEMP              0 ****  ****    0 ROOT
