@<TRIPOS>MOLECULE
MOL
  204   195     1     0     0
SMALL
resp


@<TRIPOS>ATOM
      1 C1          8.8610    7.2800   -3.9040 c3        1 MOL     -0.426453
      2 C2          8.8650    6.1840   -2.8640 c         1 MOL      0.741814
      3 O1          9.3320    5.0440   -3.0000 o         1 MOL     -0.647356
      4 H1          9.7090    7.1460   -4.5760 hc        1 MOL      0.111644
      5 H2          7.9340    7.2350   -4.4760 hc        1 MOL      0.111644
      6 H3          8.9370    8.2480   -3.4120 hc        1 MOL      0.111644
      7 N1          8.2740    6.4010   -1.6810 n         1 MOL     -0.549681
      8 C3          8.1970    5.3720   -0.6000 c3        1 MOL      0.104992
      9 C4          7.6160    4.0050   -0.9740 c         1 MOL      0.544990
     10 O2          6.4150    3.8800   -1.3420 o         1 MOL     -0.558926
     11 C5          7.5900    5.9780    0.7190 c3        1 MOL     -0.248007
     12 C6          8.1430    7.2410    1.3510 c         1 MOL      0.713784
     13 O3          7.4390    7.8800    2.2120 o         1 MOL     -0.667970
     14 O4          9.1960    7.6820    0.8230 o         1 MOL     -0.667970
     15 H4          7.7660    7.2670   -1.5290 hn        1 MOL      0.345829
     16 H5          9.1740    5.1050   -0.2200 h1        1 MOL      0.025284
     17 H6          7.6540    5.2900    1.5650 hc        1 MOL      0.057225
     18 H7          6.5580    6.2080    0.4720 hc        1 MOL      0.057225
     19 N2          8.3750    2.9700   -0.7500 n         1 MOL     -0.378227
     20 C7          8.0150    1.5350   -0.8480 c3        1 MOL     -0.062016
     21 C8          7.0250    1.0730    0.2750 c         1 MOL      0.573032
     22 O5          7.3700    1.0880    1.4670 o         1 MOL     -0.552797
     23 C9          9.2710    0.6780   -0.7020 c3        1 MOL     -0.120861
     24 C10        10.2040    0.7690   -1.9830 c3        1 MOL      0.050539
     25 C11        11.6390    0.2800   -1.7940 c3        1 MOL      0.002679
     26 C12        12.4200    0.5180   -3.0590 c3        1 MOL      0.164284
     27 N3         13.8190    0.4120   -2.9160 n4        1 MOL     -0.247768
     28 H8          9.3130    3.1540   -0.4410 hn        1 MOL      0.289785
     29 H9          7.5260    1.3150   -1.8030 h1        1 MOL      0.107635
     30 H10         9.0100   -0.3850   -0.6500 hc        1 MOL      0.058792
     31 H11         9.8450    0.9830    0.1670 hc        1 MOL      0.058792
     32 H12        10.2810    1.8380   -2.1790 hc        1 MOL      0.011598
     33 H13         9.6680    0.3130   -2.8150 hc        1 MOL      0.011598
     34 H14        11.5460   -0.8000   -1.6340 hc        1 MOL      0.008968
     35 H15        12.1680    0.7250   -0.9580 hc        1 MOL      0.008968
     36 H16        12.2100    1.4930   -3.4940 hx        1 MOL      0.019136
     37 H17        12.2250   -0.2820   -3.7730 hx        1 MOL      0.019136
     38 H18        14.0190   -0.5640   -2.7900 hn        1 MOL      0.254568
     39 H19        14.2040    0.7330   -3.7940 hn        1 MOL      0.254568
     40 H20        14.2130    0.9720   -2.1640 hn        1 MOL      0.254568
     41 N4          5.9260    0.4870   -0.1250 n         1 MOL     -0.479716
     42 C13         4.8470   -0.1190    0.7340 c3        1 MOL      0.065525
     43 C14         4.0220   -1.0490   -0.1390 c         1 MOL      0.484177
     44 O6          3.7030   -0.6840   -1.2520 o         1 MOL     -0.548134
     45 C15         4.0040    1.0880    1.3200 c3        1 MOL     -0.088347
     46 C16         2.9750    0.7510    2.3710 c         1 MOL      0.549917
     47 O7          1.9280    1.4090    2.4380 o         1 MOL     -0.687285
     48 O8          2.9760   -0.3650    2.9790 o         1 MOL     -0.687285
     49 H21         5.6570    0.6390   -1.0860 hn        1 MOL      0.277641
     50 H22         5.2100   -0.6010    1.6370 h1        1 MOL      0.078395
     51 H23         3.5520    1.6890    0.5320 hc        1 MOL      0.082961
     52 H24         4.6480    1.8600    1.7510 hc        1 MOL      0.082961
     53 N5          3.6410   -2.2290    0.2620 n         1 MOL     -0.248952
     54 C17         3.9990   -3.0100    1.4810 c3        1 MOL     -0.094029
     55 C18         3.3720   -4.3980    1.5140 c         1 MOL      0.538605
     56 O9          3.2230   -4.9970    0.4560 o         1 MOL     -0.488958
     57 H25         3.0380   -2.6610   -0.4280 hn        1 MOL      0.183840
     58 H26         3.7010   -2.4940    2.3990 h1        1 MOL      0.088780
     59 H27         5.0630   -3.1600    1.6420 h1        1 MOL      0.088780
     60 N6          2.9810   -4.9990    2.6840 n         1 MOL     -0.438389
     61 C19         2.1550   -6.2190    2.8210 c3        1 MOL      0.073522
     62 C20         0.7380   -5.9120    2.2000 c         1 MOL      0.347174
     63 O10         0.1840   -4.8690    2.3530 o         1 MOL     -0.435795
     64 C21         2.1040   -6.6260    4.2920 c3        1 MOL     -0.345940
     65 C22         1.9100   -5.4910    5.2530 c         1 MOL      0.737288
     66 O11         2.7690   -4.6520    5.5060 o         1 MOL     -0.675442
     67 O12         0.7780   -5.3500    5.8650 o         1 MOL     -0.675442
     68 H28         3.0140   -4.4390    3.5220 hn        1 MOL      0.258647
     69 H29         2.5670   -7.0210    2.2040 h1        1 MOL      0.063689
     70 H30         3.0500   -7.0930    4.5440 hc        1 MOL      0.094365
     71 H31         1.3250   -7.3760    4.4310 hc        1 MOL      0.094365
     72 N7          0.1050   -6.9020    1.5750 n         1 MOL     -0.120644
     73 C23        -0.9850   -6.7790    0.6550 c3        1 MOL     -0.669018
     74 C24        -0.7080   -6.1020   -0.6870 c         1 MOL      0.769582
     75 O13        -1.5650   -6.0560   -1.6020 o         1 MOL     -0.611332
     76 H32         0.5890   -7.7920    1.5160 hn        1 MOL      0.236622
     77 H33        -1.7350   -6.2050    1.2060 h1        1 MOL      0.241432
     78 H34        -1.2840   -7.7860    0.3480 h1        1 MOL      0.241432
     79 N8          0.5450   -5.7920   -0.9620 n         1 MOL     -0.421135
     80 C25         0.8620   -5.0300   -2.1750 c3        1 MOL     -0.080784
     81 C26         0.8040   -3.5070   -1.9990 c         1 MOL      0.630059
     82 O14         1.0310   -3.0500   -0.8610 o         1 MOL     -0.452010
     83 C27         2.2580   -5.3570   -2.7310 c3        1 MOL      0.321407
     84 C28         2.2160   -5.1520   -4.2350 c3        1 MOL     -0.142079
     85 O15         3.4270   -4.5730   -2.2210 oh        1 MOL     -0.575156
     86 H35         1.1970   -5.7560   -0.1950 hn        1 MOL      0.175518
     87 H36         0.0330   -5.1590   -2.8590 h1        1 MOL      0.086069
     88 H37         2.4360   -6.4270   -2.6230 h1        1 MOL      0.021035
     89 H38         3.4010   -4.6560   -1.2630 ho        1 MOL      0.331050
     90 H39         1.3190   -5.5030   -4.7330 hc        1 MOL      0.027121
     91 H40         2.3820   -4.0850   -4.4150 hc        1 MOL      0.027121
     92 H41         2.9920   -5.7920   -4.6620 hc        1 MOL      0.027121
     93 N9          0.3680   -2.8080   -3.0610 n         1 MOL     -0.460202
     94 C29         0.1430   -1.3470   -2.8930 c3        1 MOL     -0.324218
     95 C30        -1.1050   -1.1780   -2.0270 c         1 MOL      0.567721
     96 O16        -1.1650   -0.2820   -1.1630 o         1 MOL     -0.538888
     97 C31         0.1440   -0.6170   -4.1760 c3        1 MOL      0.436798
     98 C32         1.4970   -0.6880   -4.8950 c3        1 MOL     -0.235804
     99 C33        -0.2210    0.8760   -4.0730 c3        1 MOL     -0.541048
    100 C34         1.7330   -0.2310   -6.3380 c3        1 MOL     -0.025862
    101 H42         0.1130   -3.2700   -3.9220 hn        1 MOL      0.315912
    102 H43         0.9890   -1.0250   -2.2850 h1        1 MOL      0.155638
    103 H44        -0.5630   -1.1190   -4.8420 hc        1 MOL     -0.060696
    104 H45         1.6940   -1.7540   -4.9260 hc        1 MOL      0.084474
    105 H46         2.1610   -0.1810   -4.1810 hc        1 MOL      0.084474
    106 H47         0.0960    1.4620   -4.9450 hc        1 MOL      0.149469
    107 H48        -1.2920    0.9530   -3.8950 hc        1 MOL      0.149469
    108 H49         0.1560    1.2120   -3.1030 hc        1 MOL      0.149469
    109 H50         1.5340    0.8060   -6.6120 hc        1 MOL      0.019264
    110 H51         2.7340   -0.5140   -6.6760 hc        1 MOL      0.019264
    111 H52         1.0170   -0.7040   -7.0080 hc        1 MOL      0.019264
    112 N10        -2.1900   -1.8920   -2.3290 n         1 MOL     -0.432494
    113 C35        -3.5860   -1.8600   -1.8320 c3        1 MOL      0.105439
    114 C36        -4.5880   -1.6770   -2.9380 c         1 MOL      0.636020
    115 O17        -4.3200   -2.0080   -4.0890 o         1 MOL     -0.540997
    116 C37        -3.8600   -3.1410   -0.9610 c3        1 MOL      0.275378
    117 C38        -3.0800   -3.2880    0.3230 c3        1 MOL     -0.104285
    118 O18        -5.1790   -3.2420   -0.5120 oh        1 MOL     -0.669701
    119 H53        -1.9830   -2.7040   -2.8850 hn        1 MOL      0.235681
    120 H54        -3.7180   -1.0160   -1.1510 h1        1 MOL      0.062277
    121 H55        -3.7330   -4.0470   -1.5550 h1        1 MOL      0.010320
    122 H56        -5.3660   -4.1760   -0.4500 ho        1 MOL      0.408964
    123 H57        -2.1060   -3.7330    0.1390 hc        1 MOL      0.028101
    124 H58        -2.9090   -2.3560    0.8570 hc        1 MOL      0.028101
    125 H59        -3.5800   -3.9090    1.0590 hc        1 MOL      0.028101
    126 N11        -5.7800   -1.1270   -2.6230 n         1 MOL     -0.717672
    127 C39        -6.9470   -1.0340   -3.5860 c3        1 MOL      0.017876
    128 C40        -7.8120    0.2060   -3.2740 c         1 MOL      0.616362
    129 O19        -8.4550    0.7870   -4.2200 o         1 MOL     -0.580306
    130 C41        -7.7930   -2.3110   -3.5060 c3        1 MOL      0.351574
    131 C42        -8.8810   -2.2920   -4.4870 c3        1 MOL     -0.382842
    132 O20        -8.4060   -2.6930   -2.2710 oh        1 MOL     -0.601650
    133 H60        -5.9870   -0.8850   -1.6720 hn        1 MOL      0.372981
    134 H61        -6.6010   -0.9100   -4.6220 h1        1 MOL      0.129501
    135 H62        -7.1980   -3.1440   -3.8780 h1        1 MOL      0.020251
    136 H63        -8.1600   -3.6170   -2.1650 ho        1 MOL      0.386621
    137 H64        -8.5230   -2.1190   -5.5050 hc        1 MOL      0.097297
    138 H65        -9.4300   -3.2400   -4.4910 hc        1 MOL      0.097297
    139 H66        -9.4990   -1.4670   -4.1290 hc        1 MOL      0.097297
    140 N12        -7.8850    0.6960   -2.0270 n         1 MOL     -0.415650
    141 C43        -8.5340    1.9840   -1.5570 c3        1 MOL     -0.032689
    142 C44        -7.9570    2.4490   -0.2350 c         1 MOL      0.712532
    143 O21        -7.9340    1.6130    0.6820 o         1 MOL     -0.516951
    144 C45       -10.0520    1.7500   -1.5520 c3        1 MOL     -0.133137
    145 C46       -11.0110    3.0660   -1.3750 c3        1 MOL      0.038240
    146 C47       -12.5700    2.8830   -1.5710 c3        1 MOL      0.053153
    147 C48       -13.4800    4.1280   -1.3980 c3        1 MOL     -0.034230
    148 N13       -13.2880    4.7580   -0.0420 n4        1 MOL     -0.304941
    149 H67        -7.4730    0.1840   -1.2620 hn        1 MOL      0.239402
    150 H68        -8.2390    2.6000   -2.4000 h1        1 MOL      0.102942
    151 H69       -10.2440    1.1410   -0.6660 hc        1 MOL      0.076835
    152 H70       -10.3160    1.1940   -2.4630 hc        1 MOL      0.076835
    153 H71       -10.6900    3.8290   -2.0790 hc        1 MOL     -0.008743
    154 H72       -10.8190    3.4770   -0.3870 hc        1 MOL     -0.008743
    155 H73       -12.8810    2.1240   -0.8600 hc        1 MOL      0.023905
    156 H74       -12.7880    2.5150   -2.5740 hc        1 MOL      0.023905
    157 H75       -14.5320    3.8670   -1.5130 hx        1 MOL      0.094693
    158 H76       -13.1560    4.8160   -2.1790 hx        1 MOL      0.094693
    159 H77       -12.3830    5.1740   -0.1940 hn        1 MOL      0.290055
    160 H78       -14.0000    5.4290    0.2000 hn        1 MOL      0.290055
    161 H79       -13.2530    4.1010    0.7190 hn        1 MOL      0.290055
    162 N14        -7.4500    3.6310   -0.0140 n         1 MOL     -0.796511
    163 C49        -6.8480    3.9680    1.3200 c3        1 MOL      0.661709
    164 C50        -5.4120    3.4930    1.5270 c         1 MOL      0.315927
    165 O22        -5.2380    2.7050    2.4590 o         1 MOL     -0.530955
    166 C51        -7.1140    5.4450    1.5960 c3        1 MOL     -0.099541
    167 C52        -6.6590    6.1430    2.8890 c3        1 MOL     -0.000728
    168 C53        -7.2680    5.7020    4.2090 c         1 MOL      0.577871
    169 O23        -7.9940    4.6490    4.1450 o         1 MOL     -0.645320
    170 O24        -7.2070    6.3560    5.3120 o         1 MOL     -0.645320
    171 H80        -7.4670    4.3820   -0.6850 hn        1 MOL      0.298873
    172 H81        -7.4170    3.4240    2.0730 h1        1 MOL     -0.039260
    173 H82        -8.1910    5.6000    1.6120 hc        1 MOL     -0.024061
    174 H83        -6.6690    6.0740    0.8160 hc        1 MOL     -0.024061
    175 H84        -6.6960    7.2300    2.8130 hc        1 MOL     -0.004276
    176 H85        -5.5810    6.0510    2.9940 hc        1 MOL     -0.004276
    177 N15        -4.3540    3.7970    0.7380 n         1 MOL     -0.419198
    178 C54        -4.3260    4.8630   -0.2910 c3        1 MOL     -0.055129
    179 H86        -3.4670    4.7130   -0.9440 h1        1 MOL      0.062006
    180 H87        -5.2420    4.8230   -0.8800 h1        1 MOL      0.062006
    181 H88        -4.2480    5.8350    0.1950 h1        1 MOL      0.062006
    182 H89        -3.4210    3.5070    0.9960 hn        1 MOL      0.317818
    183 Ca1         0.3300   -0.2550    3.7900 Ca        1 MOL      1.728570
    184 O25        -1.3310    1.1110    2.1490 oh        1 MOL     -0.817651
    185 H90        -1.4450    2.0580    2.2640 ho        1 MOL      0.409013
    186 H91        -2.2090    0.7920    1.9420 ho        1 MOL      0.409013
    187 O26         0.6470    2.1870    4.9440 oh        1 MOL     -0.817651
    188 H92         0.1180    2.5760    5.6410 ho        1 MOL      0.409013
    189 H93         1.2510    2.8850    4.6810 ho        1 MOL      0.409013
    190 O27         0.3620   -1.3060    1.1340 oh        1 MOL     -0.817651
    191 H94        -0.4060   -1.1270    0.6000 ho        1 MOL      0.409013
    192 H95         0.8660   -1.9450    0.6320 ho        1 MOL      0.409013
    193 O28         2.1140   -0.5750    5.8440 oh        1 MOL     -0.817651
    194 H96         2.4220    0.3340    5.8590 ho        1 MOL      0.409013
    195 H97         2.7480   -1.0470    6.3830 ho        1 MOL      0.409013
    196 O29        -1.9190   -1.7190    3.5630 oh        1 MOL     -0.817651
    197 H98        -2.8070   -1.5590    3.2630 ho        1 MOL      0.409013
    198 H99        -1.8630   -2.6710    3.6470 ho        1 MOL      0.409013
    199 O30         0.7980   -2.7610    4.4720 oh        1 MOL     -0.817651
    200 H100        0.6290   -3.5500    3.9690 ho        1 MOL      0.409013
    201 H101        1.4400   -3.0300    5.1320 ho        1 MOL      0.409013
    202 O31        -0.9850    0.2600    6.1720 oh        1 MOL     -0.817651
    203 H102       -0.7980    1.1240    6.5210 ho        1 MOL      0.409013
    204 H103       -1.9030    0.0980    6.4160 ho        1 MOL      0.409013
@<TRIPOS>BOND
     1    1    2 1   
     2    1    4 1   
     3    1    5 1   
     4    1    6 1   
     5    2    3 2   
     6    2    7 1   
     7    7    8 1   
     8    7   15 1   
     9    8    9 1   
    10    8   11 1   
    11    8   16 1   
    12    9   10 2   
    13    9   19 1   
    14   11   12 1   
    15   11   17 1   
    16   11   18 1   
    17   12   13 1   
    18   12   14 1   
    19   19   20 1   
    20   19   28 1   
    21   20   21 1   
    22   20   23 1   
    23   20   29 1   
    24   21   22 2   
    25   21   41 1   
    26   23   24 1   
    27   23   30 1   
    28   23   31 1   
    29   24   25 1   
    30   24   32 1   
    31   24   33 1   
    32   25   26 1   
    33   25   34 1   
    34   25   35 1   
    35   26   27 1   
    36   26   36 1   
    37   26   37 1   
    38   27   38 1   
    39   27   39 1   
    40   27   40 1   
    41   41   42 1   
    42   41   49 1   
    43   42   43 1   
    44   42   45 1   
    45   42   50 1   
    46   43   44 2   
    47   43   53 1   
    48   45   46 1   
    49   45   51 1   
    50   45   52 1   
    51   46   47 1   
    52   46   48 1   
    53   53   54 1   
    54   53   57 1   
    55   54   55 1   
    56   54   58 1   
    57   54   59 1   
    58   55   56 2   
    59   55   60 1   
    60   60   61 1   
    61   60   68 1   
    62   61   62 1   
    63   61   64 1   
    64   61   69 1   
    65   62   63 2   
    66   62   72 1   
    67   64   65 1   
    68   64   70 1   
    69   64   71 1   
    70   65   66 1   
    71   65   67 1   
    72   72   73 1   
    73   72   76 1   
    74   73   74 1   
    75   73   77 1   
    76   73   78 1   
    77   74   75 2   
    78   74   79 1   
    79   79   80 1   
    80   79   86 1   
    81   80   81 1   
    82   80   83 1   
    83   80   87 1   
    84   81   82 2   
    85   81   93 1   
    86   83   84 1   
    87   83   85 1   
    88   83   88 1   
    89   84   90 1   
    90   84   91 1   
    91   84   92 1   
    92   85   89 1   
    93   93   94 1   
    94   93  101 1   
    95   94   95 1   
    96   94   97 1   
    97   94  102 1   
    98   95   96 2   
    99   95  112 1   
   100   97   98 1   
   101   97   99 1   
   102   97  103 1   
   103   98  100 1   
   104   98  104 1   
   105   98  105 1   
   106   99  106 1   
   107   99  107 1   
   108   99  108 1   
   109  100  109 1   
   110  100  110 1   
   111  100  111 1   
   112  112  113 1   
   113  112  119 1   
   114  113  114 1   
   115  113  116 1   
   116  113  120 1   
   117  114  115 2   
   118  114  126 1   
   119  116  117 1   
   120  116  118 1   
   121  116  121 1   
   122  117  123 1   
   123  117  124 1   
   124  117  125 1   
   125  118  122 1   
   126  126  127 1   
   127  126  133 1   
   128  127  128 1   
   129  127  130 1   
   130  127  134 1   
   131  128  129 2   
   132  128  140 1   
   133  130  131 1   
   134  130  132 1   
   135  130  135 1   
   136  131  137 1   
   137  131  138 1   
   138  131  139 1   
   139  132  136 1   
   140  140  141 1   
   141  140  149 1   
   142  141  142 1   
   143  141  144 1   
   144  141  150 1   
   145  142  143 2   
   146  142  162 1   
   147  144  145 1   
   148  144  151 1   
   149  144  152 1   
   150  145  146 1   
   151  145  153 1   
   152  145  154 1   
   153  146  147 1   
   154  146  155 1   
   155  146  156 1   
   156  147  148 1   
   157  147  157 1   
   158  147  158 1   
   159  148  159 1   
   160  148  160 1   
   161  148  161 1   
   162  162  163 1   
   163  162  171 1   
   164  163  164 1   
   165  163  166 1   
   166  163  172 1   
   167  164  165 2   
   168  164  177 1   
   169  166  167 1   
   170  166  173 1   
   171  166  174 1   
   172  167  168 1   
   173  167  175 1   
   174  167  176 1   
   175  168  169 1   
   176  168  170 1   
   177  177  178 1   
   178  177  182 1   
   179  178  179 1   
   180  178  180 1   
   181  178  181 1   
   182  184  185 1   
   183  184  186 1   
   184  187  188 1   
   185  187  189 1   
   186  190  191 1   
   187  190  192 1   
   188  193  194 1   
   189  193  195 1   
   190  196  197 1   
   191  196  198 1   
   192  199  200 1   
   193  199  201 1   
   194  202  203 1   
   195  202  204 1   
@<TRIPOS>SUBSTRUCTURE
     1 MOL         1 TEMP              0 ****  ****    0 ROOT
