@<TRIPOS>MOLECULE
MOL
  201   193     1     0     0
SMALL
resp


@<TRIPOS>ATOM
      1 C1          9.0540    6.7130   -4.7840 c3        1 MOL     -0.405435
      2 C2          8.6120    5.8080   -3.5810 c         1 MOL      0.767626
      3 O1          9.3570    4.9300   -3.2380 o         1 MOL     -0.604417
      4 H1          9.8810    7.3510   -4.4740 hc        1 MOL      0.097120
      5 H2          9.3740    6.0840   -5.6150 hc        1 MOL      0.097120
      6 H3          8.2160    7.3350   -5.0990 hc        1 MOL      0.097120
      7 N1          7.5240    6.1450   -2.9470 n         1 MOL     -0.733463
      8 C3          7.1950    5.5800   -1.6030 c3        1 MOL      0.176841
      9 C4          6.1390    4.4390   -1.6980 c         1 MOL      0.575314
     10 O2          5.2290    4.4320   -2.5500 o         1 MOL     -0.554491
     11 C5          6.7490    6.8380   -0.7940 c3        1 MOL     -0.142611
     12 C6          7.9000    7.7290   -0.6230 c         1 MOL      0.732505
     13 O3          7.7190    8.8690   -0.1460 o         1 MOL     -0.632515
     14 O4          9.0560    7.3420   -0.7550 o         1 MOL     -0.632515
     15 H4          6.8520    6.8040   -3.2930 hn        1 MOL      0.384794
     16 H5          8.0700    5.1490   -1.1150 h1        1 MOL      0.083521
     17 H6          6.3060    6.6400    0.1780 hc        1 MOL      0.023093
     18 H7          6.0020    7.3580   -1.3870 hc        1 MOL      0.023093
     19 N2          6.1860    3.5100   -0.7510 n         1 MOL     -0.576081
     20 C7          5.2800    2.3100   -0.7090 c3        1 MOL      0.063487
     21 C8          4.0840    2.5650    0.2570 c         1 MOL      0.638475
     22 O5          4.1580    3.3190    1.2150 o         1 MOL     -0.541990
     23 C9          6.0260    1.0460   -0.1730 c3        1 MOL     -0.011463
     24 C10         7.0400    0.4820   -1.1820 c3        1 MOL     -0.073972
     25 C11         7.8580   -0.6620   -0.4580 c3        1 MOL     -0.074832
     26 C12         8.5020   -1.4510   -1.5540 c3        1 MOL      0.143485
     27 N3          9.1380   -2.7030   -0.9610 n4        1 MOL     -0.383819
     28 H8          6.9940    3.4460   -0.1540 hn        1 MOL      0.291917
     29 H9          4.8360    2.0610   -1.6690 h1        1 MOL      0.045128
     30 H10         5.2940    0.2890    0.0960 hc        1 MOL      0.052321
     31 H11         6.4100    1.2750    0.8200 hc        1 MOL      0.052321
     32 H12         7.6670    1.3280   -1.4660 hc        1 MOL      0.049375
     33 H13         6.5010    0.0600   -2.0330 hc        1 MOL      0.049375
     34 H14         7.1810   -1.3000    0.1060 hc        1 MOL      0.045316
     35 H15         8.6200   -0.1900    0.1630 hc        1 MOL      0.045316
     36 H16         9.2030   -0.8550   -2.1420 hx        1 MOL      0.059163
     37 H17         7.7430   -1.7300   -2.2820 hx        1 MOL      0.059163
     38 H18         8.4850   -3.4280   -0.6940 hn        1 MOL      0.325616
     39 H19         9.9200   -2.9740   -1.5490 hn        1 MOL      0.325616
     40 H20         9.5600   -2.4070   -0.0970 hn        1 MOL      0.325616
     41 N4          2.9480    1.9170    0.0040 n         1 MOL     -0.454929
     42 C13         1.7660    2.1770    0.7970 c3        1 MOL     -0.056689
     43 C14         0.7010    1.0140    0.6230 c         1 MOL      0.568459
     44 O6         -0.1300    0.9900   -0.3420 o         1 MOL     -0.527108
     45 C15         1.0230    3.5420    0.3960 c3        1 MOL     -0.079196
     46 C16        -0.3020    3.8090    1.1150 c         1 MOL      0.657053
     47 O7         -1.2380    4.4460    0.5730 o         1 MOL     -0.740074
     48 O8         -0.5590    3.4300    2.2880 o         1 MOL     -0.740074
     49 H21         2.8670    1.2890   -0.7880 hn        1 MOL      0.304272
     50 H22         2.0780    2.1930    1.8430 h1        1 MOL      0.091828
     51 H23         0.7200    3.5220   -0.6470 hc        1 MOL      0.064189
     52 H24         1.6940    4.3890    0.5270 hc        1 MOL      0.064189
     53 N5          0.5050    0.0550    1.4880 n         1 MOL     -0.524165
     54 C17         1.4270   -0.3650    2.5590 c3        1 MOL      0.083761
     55 C18         2.6270   -1.1410    2.0430 c         1 MOL      0.393686
     56 O9          2.7630   -1.3370    0.8410 o         1 MOL     -0.531046
     57 H25        -0.2370   -0.5530    1.1800 hn        1 MOL      0.300278
     58 H26         0.8070   -1.0940    3.0690 h1        1 MOL      0.051285
     59 H27         1.5950    0.3510    3.3600 h1        1 MOL      0.051285
     60 N6          3.4960   -1.5240    2.9110 n         1 MOL     -0.114473
     61 C19         4.6340   -2.4160    2.5830 c3        1 MOL     -0.281970
     62 C20         4.2070   -3.9240    2.7490 c         1 MOL      0.532609
     63 O10         5.0280   -4.8560    2.6900 o         1 MOL     -0.462738
     64 C21         5.9060   -1.9300    3.3360 c3        1 MOL     -0.096091
     65 C22         5.8610   -2.2430    4.8000 c         1 MOL      0.707927
     66 O11         4.9840   -1.6320    5.4830 o         1 MOL     -0.692469
     67 O12         6.6870   -3.0290    5.2580 o         1 MOL     -0.692469
     68 H28         3.4080   -1.2220    3.8730 hn        1 MOL      0.126260
     69 H29         4.7860   -2.3370    1.5030 h1        1 MOL      0.169794
     70 H30         5.9900   -0.8550    3.2220 hc        1 MOL      0.012352
     71 H31         6.7840   -2.4610    2.9680 hc        1 MOL      0.012352
     72 N7          2.9740   -4.1940    3.1900 n         1 MOL     -0.244926
     73 C23         2.3000   -5.4780    3.4440 c3        1 MOL     -0.022154
     74 C24         2.0070   -6.2650    2.1480 c         1 MOL      0.488351
     75 O13         0.8560   -6.6430    1.9620 o         1 MOL     -0.541050
     76 H32         2.3380   -3.4280    3.3570 hn        1 MOL      0.206073
     77 H33         1.3370   -5.2040    3.8910 h1        1 MOL      0.059250
     78 H34         2.8540   -6.1570    4.0860 h1        1 MOL      0.059250
     79 N8          2.9380   -6.2790    1.1540 n         1 MOL     -0.122369
     80 C25         2.7160   -6.5320   -0.2740 c3        1 MOL     -0.331948
     81 C26         2.7130   -5.2980   -1.0750 c         1 MOL      0.639083
     82 O14         3.1900   -4.2500   -0.6790 o         1 MOL     -0.527095
     83 C27         3.8560   -7.4820   -0.7730 c3        1 MOL      0.516939
     84 C28         5.2520   -6.8370   -0.7570 c3        1 MOL     -0.390990
     85 O15         3.9490   -8.6630   -0.0680 oh        1 MOL     -0.604414
     86 H35         3.7880   -5.7440    1.2870 hn        1 MOL      0.052113
     87 H36         1.7770   -7.0860   -0.3450 h1        1 MOL      0.113652
     88 H37         3.6540   -7.7520   -1.8040 h1        1 MOL     -0.078339
     89 H38         3.3880   -9.3150   -0.4980 ho        1 MOL      0.383771
     90 H39         5.4440   -6.1480   -1.5730 hc        1 MOL      0.107496
     91 H40         5.4410   -6.4230    0.2380 hc        1 MOL      0.107496
     92 H41         5.9710   -7.6580   -0.7310 hc        1 MOL      0.107496
     93 N9          1.8290   -5.2910   -2.0900 n         1 MOL     -0.422347
     94 C29         1.4330   -4.1190   -2.8290 c3        1 MOL     -0.030952
     95 C30         0.3060   -3.4700   -2.1040 c         1 MOL      0.504063
     96 O16         0.3460   -2.2420   -1.9590 o         1 MOL     -0.492328
     97 C31         1.0080   -4.4030   -4.3230 c3        1 MOL      0.222799
     98 C32         1.9440   -5.2530   -5.1550 c3        1 MOL      0.061070
     99 C33         0.9700   -2.9550   -4.9420 c3        1 MOL     -0.390409
    100 C34         3.4500   -4.8440   -4.8950 c3        1 MOL     -0.222865
    101 H42         1.2690   -6.1130   -2.2280 hn        1 MOL      0.258216
    102 H43         2.2540   -3.4140   -2.8840 h1        1 MOL      0.110927
    103 H44         0.0340   -4.8930   -4.4240 hc        1 MOL     -0.005603
    104 H45         1.5870   -5.1170   -6.1890 hc        1 MOL     -0.018932
    105 H46         1.6220   -6.2530   -4.8720 hc        1 MOL     -0.018932
    106 H47         0.1740   -2.2880   -4.6050 hc        1 MOL      0.105592
    107 H48         1.8410   -2.3490   -4.7040 hc        1 MOL      0.105592
    108 H49         0.9990   -2.9480   -6.0310 hc        1 MOL      0.105592
    109 H50         3.5540   -3.7540   -4.9370 hc        1 MOL      0.049190
    110 H51         3.7040   -5.2600   -3.9160 hc        1 MOL      0.049190
    111 H52         4.0530   -5.3310   -5.6590 hc        1 MOL      0.049190
    112 N10        -0.6140   -4.2610   -1.5090 n         1 MOL     -0.564378
    113 C35        -1.6400   -3.8250   -0.5930 c3        1 MOL      0.261879
    114 C36        -3.0500   -4.4510   -0.7800 c         1 MOL      0.501490
    115 O17        -3.1400   -5.5810   -1.2600 o         1 MOL     -0.546994
    116 C37        -1.1720   -3.9740    0.8700 c3        1 MOL      0.157863
    117 C38         0.1780   -3.4000    1.1660 c3        1 MOL     -0.315596
    118 O18        -2.0740   -3.1450    1.5840 oh        1 MOL     -0.598831
    119 H53        -0.4870   -5.2560   -1.6590 hn        1 MOL      0.279697
    120 H54        -1.8570   -2.7660   -0.7590 h1        1 MOL      0.026495
    121 H55        -1.0980   -5.0330    1.1150 h1        1 MOL      0.030788
    122 H56        -2.2140   -3.5570    2.4390 ho        1 MOL      0.390785
    123 H57         0.9710   -3.9570    0.6670 hc        1 MOL      0.116198
    124 H58         0.2100   -2.3930    0.7370 hc        1 MOL      0.116198
    125 H59         0.4120   -3.3780    2.2210 hc        1 MOL      0.116198
    126 N11        -4.0910   -3.8080   -0.3010 n         1 MOL     -0.420802
    127 C39        -5.4550   -4.2340   -0.6240 c3        1 MOL      0.049592
    128 C40        -6.1780   -3.1120   -1.2420 c         1 MOL      0.473119
    129 O19        -6.6100   -3.1780   -2.4010 o         1 MOL     -0.540459
    130 C41        -6.2030   -4.7940    0.6030 c3        1 MOL      0.310813
    131 C42        -5.5050   -5.9600    1.3320 c3        1 MOL     -0.125257
    132 O20        -7.4110   -5.3690    0.2270 oh        1 MOL     -0.623326
    133 H60        -3.9580   -3.0370    0.3340 hn        1 MOL      0.237607
    134 H61        -5.4230   -5.0260   -1.3710 h1        1 MOL      0.125150
    135 H62        -6.4680   -3.9770    1.2700 h1        1 MOL     -0.035468
    136 H63        -8.1440   -4.8050    0.5140 ho        1 MOL      0.389583
    137 H64        -4.6180   -5.5620    1.8350 hc        1 MOL      0.043323
    138 H65        -6.0740   -6.4910    2.0950 hc        1 MOL      0.043323
    139 H66        -5.1160   -6.7240    0.6490 hc        1 MOL      0.043323
    140 N12        -6.4570   -2.0110   -0.5360 n         1 MOL     -0.477966
    141 C43        -7.3010   -0.8370   -0.9940 c3        1 MOL      0.205319
    142 C44        -6.7050    0.4100   -0.3900 c         1 MOL      0.386183
    143 O21        -6.5640    0.3370    0.8410 o         1 MOL     -0.555778
    144 C45        -8.7840   -1.0940   -0.5880 c3        1 MOL     -0.378641
    145 C46        -9.7250   -0.1320   -1.2340 c3        1 MOL      0.393417
    146 C47       -11.1330   -0.4640   -0.8440 c3        1 MOL     -0.199251
    147 C48       -12.0260   -0.0690   -2.0210 c3        1 MOL      0.113223
    148 N13       -13.3710    0.2110   -1.5360 n4        1 MOL     -0.221139
    149 H67        -6.0660   -2.0120    0.3960 hn        1 MOL      0.287149
    150 H68        -7.2390   -0.7040   -2.0740 h1        1 MOL      0.051108
    151 H69        -8.8610   -1.1700    0.5010 hc        1 MOL      0.110025
    152 H70        -9.1080   -2.0840   -0.9020 hc        1 MOL      0.110025
    153 H71        -9.5960   -0.1500   -2.3230 hc        1 MOL     -0.074366
    154 H72        -9.4700    0.9200   -1.0710 hc        1 MOL     -0.074366
    155 H73       -11.3040   -0.0480    0.1400 hc        1 MOL      0.053644
    156 H74       -11.2480   -1.5350   -0.6920 hc        1 MOL      0.053644
    157 H75       -12.1020   -0.8920   -2.7370 hx        1 MOL      0.061832
    158 H76       -11.6840    0.8240   -2.5300 hx        1 MOL      0.061832
    159 H77       -13.9780    0.4240   -2.3060 hn        1 MOL      0.219018
    160 H78       -13.6260   -0.5640   -0.9320 hn        1 MOL      0.219018
    161 H79       -13.3730    1.0120   -0.9290 hn        1 MOL      0.219018
    162 N14        -6.6790    1.5250   -1.0560 n         1 MOL     -0.351589
    163 C49        -5.9850    2.6580   -0.4830 c3        1 MOL      0.203916
    164 C50        -4.4960    2.4540   -0.1170 c         1 MOL      0.522816
    165 O22        -4.0420    2.8760    0.9290 o         1 MOL     -0.710227
    166 C51        -6.3150    3.8580   -1.4290 c3        1 MOL     -0.238884
    167 C52        -7.8320    4.3070   -1.5470 c3        1 MOL     -0.007730
    168 C53        -7.9410    5.7780   -1.9890 c         1 MOL      0.691490
    169 O23        -7.0820    6.1830   -2.8620 o         1 MOL     -0.705267
    170 O24        -8.8380    6.4440   -1.4810 o         1 MOL     -0.705267
    171 H80        -7.1480    1.6110   -1.9440 hn        1 MOL      0.289479
    172 H81        -6.4800    2.9090    0.4500 h1        1 MOL      0.060925
    173 H82        -6.0030    3.8260   -2.4790 hc        1 MOL      0.065734
    174 H83        -5.7950    4.6760   -0.9380 hc        1 MOL      0.065734
    175 H84        -8.3320    4.0570   -0.6040 hc        1 MOL     -0.043257
    176 H85        -8.2680    3.7450   -2.3640 hc        1 MOL     -0.043257
    177 N15        -3.6410    1.7580   -0.8780 n         1 MOL     -0.320444
    178 C54        -3.7660    1.3340   -2.3360 c3        1 MOL     -0.116746
    179 H86        -3.0130    0.5770   -2.5600 h1        1 MOL      0.085462
    180 H87        -4.7590    0.9200   -2.5110 h1        1 MOL      0.085462
    181 H88        -3.6130    2.1990   -2.9810 h1        1 MOL      0.085462
    182 H89        -2.8420    1.5420   -0.2990 hn        1 MOL      0.289860
    183 Ca1        -2.9530    4.6860    2.4700 Ca        1 MOL      1.837471
    184 O25        -4.4600    6.1060    0.8770 oh        1 MOL     -0.828689
    185 H90        -5.3350    6.4870    0.9370 ho        1 MOL      0.414056
    186 H91        -4.1620    6.3310   -0.0050 ho        1 MOL      0.414056
    187 O26        -1.3460    5.6760    4.4170 oh        1 MOL     -0.828689
    188 O27        -5.5330    4.0030    3.0390 oh        1 MOL     -0.828689
    189 H92        -1.3180    5.5730    5.3660 ho        1 MOL      0.414056
    190 H93        -5.4630    3.1640    3.4900 ho        1 MOL      0.414056
    191 H94        -0.6900    6.3440    4.2270 ho        1 MOL      0.414056
    192 H95        -6.4530    4.2330    3.0980 ho        1 MOL      0.414056
    193 O28        -1.5500    7.0550    1.9280 oh        1 MOL     -0.828689
    194 H96        -1.9170    7.9390    1.9950 ho        1 MOL      0.414056
    195 H97        -0.6320    7.1630    2.1910 ho        1 MOL      0.414056
    196 O29        -4.2410    6.4970    4.0430 oh        1 MOL     -0.828689
    197 H98        -4.4030    6.5840    4.9820 ho        1 MOL      0.414056
    198 H99        -4.8590    7.1110    3.6340 ho        1 MOL      0.414056
    199 O30        -3.1010    2.7400    4.3160 oh        1 MOL     -0.828689
    200 H100       -3.7060    2.0500    4.6180 ho        1 MOL      0.414056
    201 H101       -2.2350    2.3350    4.3830 ho        1 MOL      0.414056
@<TRIPOS>BOND
     1    1    2 1   
     2    1    4 1   
     3    1    5 1   
     4    1    6 1   
     5    2    3 2   
     6    2    7 1   
     7    7    8 1   
     8    7   15 1   
     9    8    9 1   
    10    8   11 1   
    11    8   16 1   
    12    9   10 2   
    13    9   19 1   
    14   11   12 1   
    15   11   17 1   
    16   11   18 1   
    17   12   13 1   
    18   12   14 1   
    19   19   20 1   
    20   19   28 1   
    21   20   21 1   
    22   20   23 1   
    23   20   29 1   
    24   21   22 2   
    25   21   41 1   
    26   23   24 1   
    27   23   30 1   
    28   23   31 1   
    29   24   25 1   
    30   24   32 1   
    31   24   33 1   
    32   25   26 1   
    33   25   34 1   
    34   25   35 1   
    35   26   27 1   
    36   26   36 1   
    37   26   37 1   
    38   27   38 1   
    39   27   39 1   
    40   27   40 1   
    41   41   42 1   
    42   41   49 1   
    43   42   43 1   
    44   42   45 1   
    45   42   50 1   
    46   43   44 2   
    47   43   53 1   
    48   45   46 1   
    49   45   51 1   
    50   45   52 1   
    51   46   47 1   
    52   46   48 1   
    53   53   54 1   
    54   53   57 1   
    55   54   55 1   
    56   54   58 1   
    57   54   59 1   
    58   55   56 2   
    59   55   60 1   
    60   60   61 1   
    61   60   68 1   
    62   61   62 1   
    63   61   64 1   
    64   61   69 1   
    65   62   63 2   
    66   62   72 1   
    67   64   65 1   
    68   64   70 1   
    69   64   71 1   
    70   65   66 1   
    71   65   67 1   
    72   72   73 1   
    73   72   76 1   
    74   73   74 1   
    75   73   77 1   
    76   73   78 1   
    77   74   75 2   
    78   74   79 1   
    79   79   80 1   
    80   79   86 1   
    81   80   81 1   
    82   80   83 1   
    83   80   87 1   
    84   81   82 2   
    85   81   93 1   
    86   83   84 1   
    87   83   85 1   
    88   83   88 1   
    89   84   90 1   
    90   84   91 1   
    91   84   92 1   
    92   85   89 1   
    93   93   94 1   
    94   93  101 1   
    95   94   95 1   
    96   94   97 1   
    97   94  102 1   
    98   95   96 2   
    99   95  112 1   
   100   97   98 1   
   101   97   99 1   
   102   97  103 1   
   103   98  100 1   
   104   98  104 1   
   105   98  105 1   
   106   99  106 1   
   107   99  107 1   
   108   99  108 1   
   109  100  109 1   
   110  100  110 1   
   111  100  111 1   
   112  112  113 1   
   113  112  119 1   
   114  113  114 1   
   115  113  116 1   
   116  113  120 1   
   117  114  115 2   
   118  114  126 1   
   119  116  117 1   
   120  116  118 1   
   121  116  121 1   
   122  117  123 1   
   123  117  124 1   
   124  117  125 1   
   125  118  122 1   
   126  126  127 1   
   127  126  133 1   
   128  127  128 1   
   129  127  130 1   
   130  127  134 1   
   131  128  129 2   
   132  128  140 1   
   133  130  131 1   
   134  130  132 1   
   135  130  135 1   
   136  131  137 1   
   137  131  138 1   
   138  131  139 1   
   139  132  136 1   
   140  140  141 1   
   141  140  149 1   
   142  141  142 1   
   143  141  144 1   
   144  141  150 1   
   145  142  143 2   
   146  142  162 1   
   147  144  145 1   
   148  144  151 1   
   149  144  152 1   
   150  145  146 1   
   151  145  153 1   
   152  145  154 1   
   153  146  147 1   
   154  146  155 1   
   155  146  156 1   
   156  147  148 1   
   157  147  157 1   
   158  147  158 1   
   159  148  159 1   
   160  148  160 1   
   161  148  161 1   
   162  162  163 1   
   163  162  171 1   
   164  163  164 1   
   165  163  166 1   
   166  163  172 1   
   167  164  165 2   
   168  164  177 1   
   169  166  167 1   
   170  166  173 1   
   171  166  174 1   
   172  167  168 1   
   173  167  175 1   
   174  167  176 1   
   175  168  169 1   
   176  168  170 1   
   177  177  178 1   
   178  177  182 1   
   179  178  179 1   
   180  178  180 1   
   181  178  181 1   
   182  184  185 1   
   183  184  186 1   
   184  187  189 1   
   185  187  191 1   
   186  188  190 1   
   187  188  192 1   
   188  193  194 1   
   189  193  195 1   
   190  196  197 1   
   191  196  198 1   
   192  199  200 1   
   193  199  201 1   
@<TRIPOS>SUBSTRUCTURE
     1 MOL         1 TEMP              0 ****  ****    0 ROOT
