@<TRIPOS>MOLECULE
MOL
  192   187     1     0     0
SMALL
resp


@<TRIPOS>ATOM
      1 C1         11.7950    6.8920   -1.5740 c3        1 MOL     -0.204035
      2 C2         11.6620    5.4160   -1.0550 c         1 MOL      0.574237
      3 O1         12.6510    4.7470   -0.8120 o         1 MOL     -0.548969
      4 H1         11.5110    6.9340   -2.6260 hc        1 MOL      0.057751
      5 H2         11.1390    7.5420   -0.9960 hc        1 MOL      0.057751
      6 H3         12.8270    7.2240   -1.4640 hc        1 MOL      0.057751
      7 N1         10.4540    4.9100   -0.7620 n         1 MOL     -0.172088
      8 C3         10.1910    3.6070   -0.0900 c3        1 MOL     -0.584080
      9 C4          8.9890    2.8010   -0.5710 c         1 MOL      0.875399
     10 O2          8.0390    3.4020   -0.9680 o         1 MOL     -0.622402
     11 C5         10.0560    3.7680    1.4210 c3        1 MOL     -0.073247
     12 C6          9.1840    4.8210    2.0710 c         1 MOL      0.700104
     13 O3          8.3710    5.5170    1.3800 o         1 MOL     -0.712042
     14 O4          9.0850    4.8610    3.3260 o         1 MOL     -0.712042
     15 H4          9.6200    5.4400   -0.9920 hn        1 MOL      0.082219
     16 H5         11.0810    2.9770   -0.1840 h1        1 MOL      0.204376
     17 H6         11.0430    3.8860    1.8690 hc        1 MOL      0.102334
     18 H7          9.6970    2.8540    1.8840 hc        1 MOL      0.102334
     19 N2          9.0060    1.4840   -0.5840 n         1 MOL     -0.643821
     20 C7          7.9560    0.5740   -0.9780 c3        1 MOL      0.255390
     21 C8          7.1730    0.2270    0.2710 c         1 MOL      0.496144
     22 O5          7.7840   -0.1100    1.2860 o         1 MOL     -0.502135
     23 C9          8.4930   -0.5050   -1.8640 c3        1 MOL     -0.067042
     24 C10         7.3810   -1.1990   -2.6360 c3        1 MOL      0.335810
     25 C11         7.8150   -2.3530   -3.5800 c3        1 MOL     -0.306920
     26 C12         6.5620   -3.1640   -4.0110 c3        1 MOL      0.198875
     27 N3          6.8510   -4.2070   -4.9870 n4        1 MOL     -0.300303
     28 H8          9.7230    1.0890    0.0100 hn        1 MOL      0.313163
     29 H9          7.2400    1.1590   -1.5590 h1        1 MOL     -0.021773
     30 H10         8.9410   -1.2430   -1.1890 hc        1 MOL      0.021252
     31 H11         9.1900   -0.1230   -2.6050 hc        1 MOL      0.021252
     32 H12         6.8580   -0.4270   -3.1980 hc        1 MOL     -0.092424
     33 H13         6.6720   -1.5860   -1.9000 hc        1 MOL     -0.092424
     34 H14         8.4730   -2.9570   -2.9600 hc        1 MOL      0.077316
     35 H15         8.3900   -1.9880   -4.4400 hc        1 MOL      0.077316
     36 H16         5.8200   -2.5030   -4.4550 hx        1 MOL      0.045479
     37 H17         6.0170   -3.5880   -3.1760 hx        1 MOL      0.045479
     38 H18         6.1210   -4.8780   -5.1690 hn        1 MOL      0.254052
     39 H19         7.0770   -3.8020   -5.8890 hn        1 MOL      0.254052
     40 H20         7.6240   -4.7570   -4.6330 hn        1 MOL      0.254052
     41 N4          5.8520    0.3300    0.1370 n         1 MOL     -0.419926
     42 C13         4.7910    0.1720    1.2030 c3        1 MOL      0.106160
     43 C14         3.4130   -0.1200    0.5650 c         1 MOL      0.488516
     44 O6          3.1620    0.3320   -0.5440 o         1 MOL     -0.540750
     45 C15         4.6660    1.3520    2.1920 c3        1 MOL     -0.374019
     46 C16         5.1290    2.6580    1.6180 c         1 MOL      0.794462
     47 O7          4.3190    3.4310    1.0320 o         1 MOL     -0.708599
     48 O8          6.3200    2.9830    1.6140 o         1 MOL     -0.708599
     49 H21         5.5350    0.6080   -0.7840 hn        1 MOL      0.219916
     50 H22         5.1510   -0.5840    1.9120 h1        1 MOL      0.110698
     51 H23         5.3100    1.1750    3.0550 hc        1 MOL      0.107232
     52 H24         3.6530    1.3030    2.5850 hc        1 MOL      0.107232
     53 N5          2.5280   -0.9550    1.1460 n         1 MOL     -0.298905
     54 C17         2.6270   -1.6420    2.4090 c3        1 MOL     -0.213847
     55 C18         3.4220   -2.9440    2.2510 c         1 MOL      0.536790
     56 O9          4.1090   -3.1900    1.2800 o         1 MOL     -0.594404
     57 H25         1.6750   -1.1700    0.6510 hn        1 MOL      0.286855
     58 H26         1.6400   -1.9470    2.7590 h1        1 MOL      0.131452
     59 H27         3.0600   -0.9770    3.1580 h1        1 MOL      0.131452
     60 N6          3.3070   -3.8340    3.1700 n         1 MOL     -0.209151
     61 C19         3.7650   -5.2230    3.1420 c3        1 MOL     -0.048621
     62 C20         2.8370   -6.1470    2.3480 c         1 MOL      0.530125
     63 O10         1.6840   -6.4210    2.7420 o         1 MOL     -0.471613
     64 C21         4.0950   -5.8810    4.5390 c3        1 MOL     -0.194658
     65 C22         2.8480   -5.9760    5.5180 c         1 MOL      0.621615
     66 O11         2.5230   -7.1670    5.8750 o         1 MOL     -0.597910
     67 O12         2.1780   -4.9720    5.9920 o         1 MOL     -0.597910
     68 H28         2.7220   -3.5540    3.9450 hn        1 MOL      0.165351
     69 H29         4.7200   -5.1860    2.6060 h1        1 MOL      0.058474
     70 H30         4.8890   -5.2660    4.9630 hc        1 MOL      0.050392
     71 H31         4.4710   -6.9010    4.4390 hc        1 MOL      0.050392
     72 N7          3.3490   -6.6550    1.2220 n         1 MOL     -0.377512
     73 C23         2.4540   -7.4660    0.3530 c3        1 MOL      0.040729
     74 C24         1.6920   -6.6540   -0.7310 c         1 MOL      0.420555
     75 O13         1.0990   -7.3730   -1.5330 o         1 MOL     -0.527355
     76 H32         4.3220   -6.5440    0.9910 hn        1 MOL      0.264186
     77 H33         1.8180   -8.1070    0.9670 h1        1 MOL      0.063589
     78 H34         3.1120   -8.2470   -0.0250 h1        1 MOL      0.063589
     79 N8          1.6490   -5.3120   -0.6180 n         1 MOL     -0.123151
     80 C25         1.0890   -4.3980   -1.5950 c3        1 MOL      0.050774
     81 C26         0.4490   -3.1100   -1.0230 c         1 MOL      0.250484
     82 O14         0.7720   -2.8930    0.1310 o         1 MOL     -0.365422
     83 C27         2.2130   -3.9700   -2.6290 c3        1 MOL      0.046061
     84 C28         3.3880   -3.2230   -1.9580 c3        1 MOL     -0.233215
     85 O15         2.7680   -5.1320   -3.1990 oh        1 MOL     -0.590317
     86 H35         2.1520   -4.8440    0.1250 hn        1 MOL      0.090838
     87 H36         0.3250   -4.9650   -2.1300 h1        1 MOL      0.060852
     88 H37         1.7570   -3.3580   -3.3960 h1        1 MOL      0.060614
     89 H38         2.1060   -5.6270   -3.6900 ho        1 MOL      0.399373
     90 H39         3.1370   -2.3610   -1.3300 hc        1 MOL      0.095160
     91 H40         3.9100   -3.9480   -1.3370 hc        1 MOL      0.095160
     92 H41         4.1230   -2.8570   -2.6790 hc        1 MOL      0.095160
     93 N9         -0.2030   -2.2110   -1.7650 n         1 MOL     -0.265571
     94 C29        -0.5490   -0.8200   -1.2700 c3        1 MOL     -0.010402
     95 C30        -1.8500   -0.8530   -0.4280 c         1 MOL      0.437033
     96 O16        -2.0060   -0.2470    0.6290 o         1 MOL     -0.500082
     97 C31        -0.8020    0.1850   -2.5030 c3        1 MOL      0.278298
     98 C32         0.5430    0.3120   -3.3190 c3        1 MOL     -0.221468
     99 C33        -1.1750    1.5680   -1.9180 c3        1 MOL     -0.355918
    100 C34         0.3940    1.0580   -4.6840 c3        1 MOL      0.051422
    101 H42        -0.3150   -2.3370   -2.7690 hn        1 MOL      0.224100
    102 H43         0.2740   -0.4720   -0.6580 h1        1 MOL      0.049686
    103 H44        -1.6350   -0.1610   -3.1140 hc        1 MOL     -0.015357
    104 H45         0.9150   -0.7030   -3.4900 hc        1 MOL      0.051523
    105 H46         1.2140    0.8150   -2.6220 hc        1 MOL      0.051523
    106 H47        -0.3510    2.0320   -1.3850 hc        1 MOL      0.099986
    107 H48        -1.4210    2.1120   -2.8230 hc        1 MOL      0.099986
    108 H49        -2.1200    1.5300   -1.3690 hc        1 MOL      0.099986
    109 H50         1.2520    1.0300   -5.3570 hc        1 MOL     -0.009409
    110 H51        -0.3860    0.5060   -5.2110 hc        1 MOL     -0.009409
    111 H52        -0.0430    2.0550   -4.5740 hc        1 MOL     -0.009409
    112 N10        -2.8020   -1.7690   -0.7610 n         1 MOL     -0.228277
    113 C35        -4.1240   -1.8790   -0.1150 c3        1 MOL     -0.094752
    114 C36        -5.1940   -2.2890   -1.1840 c         1 MOL      0.526470
    115 O17        -4.8230   -2.9270   -2.1910 o         1 MOL     -0.512064
    116 C37        -4.1250   -2.9750    0.9740 c3        1 MOL      0.438769
    117 C38        -3.3920   -4.2880    0.4870 c3        1 MOL     -0.344965
    118 O18        -3.5030   -2.6160    2.2180 oh        1 MOL     -0.560965
    119 H53        -2.7390   -2.1800   -1.6790 hn        1 MOL      0.140653
    120 H54        -4.4670   -0.9180    0.2460 h1        1 MOL      0.073452
    121 H55        -5.1590   -3.2100    1.2420 h1        1 MOL     -0.063937
    122 H56        -4.0330   -1.8890    2.5660 ho        1 MOL      0.364904
    123 H57        -3.7600   -4.5820   -0.4950 hc        1 MOL      0.102617
    124 H58        -2.3100   -4.1680    0.3920 hc        1 MOL      0.102617
    125 H59        -3.5800   -5.0450    1.2410 hc        1 MOL      0.102617
    126 N11        -6.4780   -2.0740   -0.9200 n         1 MOL     -0.493392
    127 C39        -7.5780   -2.3100   -1.9070 c3        1 MOL     -0.118914
    128 C40        -8.5970   -1.1860   -1.8140 c         1 MOL      0.683904
    129 O19        -9.2050   -0.9290   -2.8490 o         1 MOL     -0.588564
    130 C41        -8.0810   -3.7050   -1.5890 c3        1 MOL      0.472270
    131 C42        -9.2820   -4.1170   -2.4210 c3        1 MOL     -0.533148
    132 O20        -8.4360   -3.8280   -0.1830 oh        1 MOL     -0.646475
    133 H60        -6.6280   -1.4480   -0.1460 hn        1 MOL      0.265224
    134 H61        -7.1870   -2.2950   -2.9240 h1        1 MOL      0.111058
    135 H62        -7.2940   -4.4570   -1.6640 h1        1 MOL      0.012015
    136 H63        -7.6620   -4.2550    0.1850 ho        1 MOL      0.388202
    137 H64        -9.6530   -4.9920   -1.8810 hc        1 MOL      0.142726
    138 H65       -10.0930   -3.3950   -2.5330 hc        1 MOL      0.142726
    139 H66        -8.8870   -4.5170   -3.3520 hc        1 MOL      0.142726
    140 N12        -8.9260   -0.6130   -0.6610 n         1 MOL     -0.505326
    141 C43        -9.9480    0.4160   -0.4640 c3        1 MOL      0.063959
    142 C44        -9.4220    1.4690    0.4560 c         1 MOL      0.507704
    143 O21        -9.0090    1.1520    1.5650 o         1 MOL     -0.511464
    144 C45       -11.3220   -0.1240    0.0260 c3        1 MOL     -0.294859
    145 C46       -12.4010    0.8680    0.0630 c3        1 MOL      0.014668
    146 C47       -13.7620    0.2640    0.3220 c3        1 MOL     -0.114661
    147 C48       -14.9210    1.3360    0.6030 c3        1 MOL      0.103976
    148 N13       -16.1840    0.6650    0.7790 n4        1 MOL     -0.148475
    149 H67        -8.3630   -0.9430    0.1150 hn        1 MOL      0.285020
    150 H68       -10.1210    0.9050   -1.4210 h1        1 MOL      0.095812
    151 H69       -11.3170   -0.4150    1.0730 hc        1 MOL      0.154700
    152 H70       -11.5260   -0.9370   -0.6680 hc        1 MOL      0.154700
    153 H71       -12.4090    1.3770   -0.9020 hc        1 MOL      0.054113
    154 H72       -12.2080    1.5950    0.8550 hc        1 MOL      0.054113
    155 H73       -13.7410   -0.4030    1.1760 hc        1 MOL      0.033334
    156 H74       -13.9970   -0.3150   -0.5690 hc        1 MOL      0.033334
    157 H75       -15.0430    1.9880   -0.2660 hx        1 MOL      0.061401
    158 H76       -14.6420    2.0010    1.4130 hx        1 MOL      0.061401
    159 H77       -16.3750    0.1450   -0.0740 hn        1 MOL      0.223920
    160 H78       -16.1750   -0.0610    1.4770 hn        1 MOL      0.223920
    161 H79       -16.9700    1.2870    0.8980 hn        1 MOL      0.223920
    162 N14        -9.5880    2.6930    0.0540 n         1 MOL     -0.495725
    163 C49        -9.5260    3.9200    0.9220 c3        1 MOL      0.339855
    164 C50        -8.0690    4.2920    1.1460 c         1 MOL      0.391239
    165 O22        -7.6670    4.2410    2.2950 o         1 MOL     -0.514825
    166 C51       -10.6110    4.9200    0.4420 c3        1 MOL      0.098856
    167 C52       -10.7800    6.0180    1.4900 c3        1 MOL     -0.129689
    168 C53       -11.3300    7.2520    0.8810 c         1 MOL      0.737644
    169 O23       -10.5870    8.2040    0.5460 o         1 MOL     -0.680652
    170 O24       -12.5420    7.3490    0.8000 o         1 MOL     -0.680652
    171 H80        -9.9730    2.8040   -0.8750 hn        1 MOL      0.225814
    172 H81        -9.9240    3.6440    1.9000 h1        1 MOL     -0.000843
    173 H82       -11.5470    4.3830    0.2970 hc        1 MOL     -0.058019
    174 H83       -10.2270    5.4430   -0.4360 hc        1 MOL     -0.058019
    175 H84        -9.8190    6.2150    1.9530 hc        1 MOL      0.010425
    176 H85       -11.4770    5.6620    2.2490 hc        1 MOL      0.010425
    177 N15        -7.1710    4.5750    0.1570 n         1 MOL     -0.335976
    178 C54        -7.4390    4.8310   -1.2700 c3        1 MOL     -0.167498
    179 H86        -6.5530    5.2640   -1.7340 h1        1 MOL      0.088865
    180 H87        -7.6880    3.8940   -1.7670 h1        1 MOL      0.088865
    181 H88        -8.2740    5.5260   -1.3640 h1        1 MOL      0.088865
    182 H89        -6.1990    4.6710    0.3870 hn        1 MOL      0.290057
    183 Ca1         6.1470    5.0760    0.0590 Ca        1 MOL      1.747015
    184 O25         5.7260    6.2460    2.4340 oh        1 MOL     -0.890149
    185 H90         5.6110    7.1860    2.5690 ho        1 MOL      0.436450
    186 H91         6.3580    5.9890    3.1000 ho        1 MOL      0.436450
    187 O26         5.4150    3.5400   -1.9390 oh        1 MOL     -0.890149
    188 H92         6.1240    3.4370   -2.5790 ho        1 MOL      0.436450
    189 H93         4.7680    2.8810   -2.1970 ho        1 MOL      0.436450
    190 O27         3.7280    5.8670   -0.4580 oh        1 MOL     -0.890149
    191 H94         3.1470    5.2570   -0.8940 ho        1 MOL      0.436450
    192 H95         3.1370    6.4870   -0.0110 ho        1 MOL      0.436450
@<TRIPOS>BOND
     1    1    2 1   
     2    1    4 1   
     3    1    5 1   
     4    1    6 1   
     5    2    3 2   
     6    2    7 1   
     7    7    8 1   
     8    7   15 1   
     9    8    9 1   
    10    8   11 1   
    11    8   16 1   
    12    9   10 2   
    13    9   19 1   
    14   11   12 1   
    15   11   17 1   
    16   11   18 1   
    17   12   13 1   
    18   12   14 1   
    19   19   20 1   
    20   19   28 1   
    21   20   21 1   
    22   20   23 1   
    23   20   29 1   
    24   21   22 2   
    25   21   41 1   
    26   23   24 1   
    27   23   30 1   
    28   23   31 1   
    29   24   25 1   
    30   24   32 1   
    31   24   33 1   
    32   25   26 1   
    33   25   34 1   
    34   25   35 1   
    35   26   27 1   
    36   26   36 1   
    37   26   37 1   
    38   27   38 1   
    39   27   39 1   
    40   27   40 1   
    41   41   42 1   
    42   41   49 1   
    43   42   43 1   
    44   42   45 1   
    45   42   50 1   
    46   43   44 2   
    47   43   53 1   
    48   45   46 1   
    49   45   51 1   
    50   45   52 1   
    51   46   47 1   
    52   46   48 1   
    53   53   54 1   
    54   53   57 1   
    55   54   55 1   
    56   54   58 1   
    57   54   59 1   
    58   55   56 2   
    59   55   60 1   
    60   60   61 1   
    61   60   68 1   
    62   61   62 1   
    63   61   64 1   
    64   61   69 1   
    65   62   63 2   
    66   62   72 1   
    67   64   65 1   
    68   64   70 1   
    69   64   71 1   
    70   65   66 1   
    71   65   67 1   
    72   72   73 1   
    73   72   76 1   
    74   73   74 1   
    75   73   77 1   
    76   73   78 1   
    77   74   75 2   
    78   74   79 1   
    79   79   80 1   
    80   79   86 1   
    81   80   81 1   
    82   80   83 1   
    83   80   87 1   
    84   81   82 2   
    85   81   93 1   
    86   83   84 1   
    87   83   85 1   
    88   83   88 1   
    89   84   90 1   
    90   84   91 1   
    91   84   92 1   
    92   85   89 1   
    93   93   94 1   
    94   93  101 1   
    95   94   95 1   
    96   94   97 1   
    97   94  102 1   
    98   95   96 2   
    99   95  112 1   
   100   97   98 1   
   101   97   99 1   
   102   97  103 1   
   103   98  100 1   
   104   98  104 1   
   105   98  105 1   
   106   99  106 1   
   107   99  107 1   
   108   99  108 1   
   109  100  109 1   
   110  100  110 1   
   111  100  111 1   
   112  112  113 1   
   113  112  119 1   
   114  113  114 1   
   115  113  116 1   
   116  113  120 1   
   117  114  115 2   
   118  114  126 1   
   119  116  117 1   
   120  116  118 1   
   121  116  121 1   
   122  117  123 1   
   123  117  124 1   
   124  117  125 1   
   125  118  122 1   
   126  126  127 1   
   127  126  133 1   
   128  127  128 1   
   129  127  130 1   
   130  127  134 1   
   131  128  129 2   
   132  128  140 1   
   133  130  131 1   
   134  130  132 1   
   135  130  135 1   
   136  131  137 1   
   137  131  138 1   
   138  131  139 1   
   139  132  136 1   
   140  140  141 1   
   141  140  149 1   
   142  141  142 1   
   143  141  144 1   
   144  141  150 1   
   145  142  143 2   
   146  142  162 1   
   147  144  145 1   
   148  144  151 1   
   149  144  152 1   
   150  145  146 1   
   151  145  153 1   
   152  145  154 1   
   153  146  147 1   
   154  146  155 1   
   155  146  156 1   
   156  147  148 1   
   157  147  157 1   
   158  147  158 1   
   159  148  159 1   
   160  148  160 1   
   161  148  161 1   
   162  162  163 1   
   163  162  171 1   
   164  163  164 1   
   165  163  166 1   
   166  163  172 1   
   167  164  165 2   
   168  164  177 1   
   169  166  167 1   
   170  166  173 1   
   171  166  174 1   
   172  167  168 1   
   173  167  175 1   
   174  167  176 1   
   175  168  169 1   
   176  168  170 1   
   177  177  178 1   
   178  177  182 1   
   179  178  179 1   
   180  178  180 1   
   181  178  181 1   
   182  184  185 1   
   183  184  186 1   
   184  187  188 1   
   185  187  189 1   
   186  190  191 1   
   187  190  192 1   
@<TRIPOS>SUBSTRUCTURE
     1 MOL         1 TEMP              0 ****  ****    0 ROOT
