@<TRIPOS>MOLECULE
MOL
  189   185     1     0     0
SMALL
resp


@<TRIPOS>ATOM
      1 C1          3.7010    4.0290   -3.5270 c3        1 MOL     -0.391016
      2 C2          4.5630    3.0080   -2.7340 c         1 MOL      0.678336
      3 O1          4.0220    2.4470   -1.7770 o         1 MOL     -0.658920
      4 H1          3.1320    3.5050   -4.2940 hc        1 MOL      0.111066
      5 H2          3.0150    4.5310   -2.8460 hc        1 MOL      0.111066
      6 H3          4.3520    4.7670   -3.9970 hc        1 MOL      0.111066
      7 N1          5.8500    2.6970   -3.0890 n         1 MOL     -0.715567
      8 C3          6.7610    1.7060   -2.5300 c3        1 MOL      0.317852
      9 C4          6.1590    0.4480   -1.9250 c         1 MOL      0.102872
     10 O2          5.8860    0.4280   -0.7470 o         1 MOL     -0.328208
     11 C5          7.7530    2.2980   -1.4930 c3        1 MOL     -0.053087
     12 C6          7.2130    3.4210   -0.5980 c         1 MOL      0.799236
     13 O3          6.3040    3.2320    0.2530 o         1 MOL     -0.751440
     14 O4          7.8610    4.5220   -0.6150 o         1 MOL     -0.751440
     15 H4          6.1490    3.1730   -3.9290 hn        1 MOL      0.350862
     16 H5          7.3660    1.4150   -3.3910 h1        1 MOL     -0.000154
     17 H6          8.4750    2.8340   -2.1240 hc        1 MOL     -0.022393
     18 H7          8.1820    1.5250   -0.8550 hc        1 MOL     -0.022393
     19 N2          5.9460   -0.5460   -2.7660 n         1 MOL     -0.298622
     20 C7          5.3490   -1.8650   -2.6640 c3        1 MOL      0.027636
     21 C8          6.0710   -2.7880   -1.6230 c         1 MOL      0.400493
     22 O5          6.4160   -3.8880   -1.9330 o         1 MOL     -0.550120
     23 C9          3.8010   -1.7580   -2.4110 c3        1 MOL      0.103306
     24 C10         3.2100   -3.2290   -2.5980 c3        1 MOL     -0.158499
     25 C11         3.1520   -0.6910   -3.2160 c3        1 MOL     -0.022482
     26 C12         2.8970   -3.5290   -4.0920 c3        1 MOL     -0.176289
     27 H8          6.1490   -0.2290   -3.7020 hn        1 MOL      0.250786
     28 H9          5.5440   -2.4030   -3.5840 h1        1 MOL      0.065234
     29 H10         3.5900   -1.5520   -1.3630 hc        1 MOL     -0.086260
     30 H11         2.2100   -3.2320   -2.1710 hc        1 MOL      0.096806
     31 H12         3.7260   -3.9960   -2.0170 hc        1 MOL      0.096806
     32 H13         3.3540    0.2930   -2.7980 hc        1 MOL      0.016860
     33 H14         3.5330   -0.5980   -4.2290 hc        1 MOL      0.016860
     34 H15         2.0680   -0.7850   -3.3160 hc        1 MOL      0.016860
     35 H16         1.9540   -3.0330   -4.3160 hc        1 MOL      0.029412
     36 H17         3.6500   -3.0760   -4.7490 hc        1 MOL      0.029412
     37 H18         2.7540   -4.5930   -4.2530 hc        1 MOL      0.029412
     38 N3          6.5230   -2.3250   -0.4760 n         1 MOL     -0.102956
     39 C13         7.4230   -3.0770    0.3890 c3        1 MOL      0.019246
     40 C14         6.8480   -4.4660    0.9510 c         1 MOL      0.555675
     41 O6          7.6440   -5.4180    0.9850 o         1 MOL     -0.572851
     42 C15         7.9180   -2.1990    1.5660 c3        1 MOL     -0.381955
     43 C16         8.5520   -0.8810    1.1760 c         1 MOL      0.777459
     44 O7          9.2820   -0.8940    0.0910 o         1 MOL     -0.709633
     45 O8          8.3770    0.0750    1.9170 o         1 MOL     -0.709633
     46 H19         6.1730   -1.4450   -0.1130 hn        1 MOL      0.207420
     47 H20         8.2960   -3.3130   -0.2110 h1        1 MOL      0.069356
     48 H21         8.6620   -2.6760    2.2120 hc        1 MOL      0.114679
     49 H22         7.1390   -2.0010    2.3080 hc        1 MOL      0.114679
     50 N4          5.5420   -4.5920    1.2970 n         1 MOL     -0.546967
     51 C17         4.5030   -3.5730    1.5370 c3        1 MOL      0.179920
     52 C18         4.4940   -3.0200    2.9740 c         1 MOL      0.465107
     53 O9          5.3690   -3.2090    3.8100 o         1 MOL     -0.556965
     54 H23         5.3580   -5.5440    1.5750 hn        1 MOL      0.288905
     55 H24         3.5240   -4.0270    1.4010 h1        1 MOL      0.021852
     56 H25         4.6300   -2.7260    0.8600 h1        1 MOL      0.021852
     57 N5          3.5670   -2.1770    3.4670 n         1 MOL     -0.412829
     58 C19         2.2740   -1.7440    2.8730 c3        1 MOL      0.075587
     59 C20         2.4520   -1.0760    1.4690 c         1 MOL      0.032993
     60 O10         3.5280   -0.5670    1.1050 o         1 MOL     -0.490165
     61 C21         1.7490   -0.7290    3.8860 c3        1 MOL     -0.209176
     62 C22         2.6810    0.4370    4.0920 c         1 MOL      0.812443
     63 O11         3.3460    0.4390    5.1320 o         1 MOL     -0.703265
     64 O12         2.7120    1.3580    3.2590 o         1 MOL     -0.703265
     65 H26         3.7980   -1.8540    4.3970 hn        1 MOL      0.312908
     66 H27         1.6000   -2.5970    2.8310 h1        1 MOL      0.045157
     67 H28         1.6630   -1.2570    4.8270 hc        1 MOL      0.031824
     68 H29         0.7690   -0.3810    3.5550 hc        1 MOL      0.031824
     69 N6          1.4850   -0.9670    0.6020 n         1 MOL      0.035419
     70 C23         0.1120   -1.3180    0.7960 c3        1 MOL      0.054118
     71 C24        -0.3400   -2.6350    0.0760 c         1 MOL      0.441769
     72 O13         0.3220   -3.0880   -0.8570 o         1 MOL     -0.494467
     73 H30         1.7260   -0.5780   -0.3050 hn        1 MOL      0.207291
     74 H31        -0.5480   -0.5080    0.4770 h1        1 MOL      0.023238
     75 H32        -0.1570   -1.4630    1.8430 h1        1 MOL      0.023238
     76 N7         -1.5030   -3.1960    0.3790 n         1 MOL     -0.437774
     77 C25        -2.0550   -4.3600   -0.3080 c3        1 MOL      0.125265
     78 C26        -2.4840   -4.1070   -1.8500 c         1 MOL      0.289581
     79 O14        -2.4600   -4.9560   -2.7530 o         1 MOL     -0.511713
     80 C27        -3.2410   -4.9240    0.4950 c3        1 MOL      0.171602
     81 C28        -2.8990   -5.7880    1.6990 c3        1 MOL     -0.327725
     82 C29        -4.0650   -6.3390    2.5080 c         1 MOL      0.751759
     83 N8         -3.9090   -6.4880    3.8170 n         1 MOL     -0.833234
     84 O15        -5.0700   -6.8100    2.0200 o         1 MOL     -0.568766
     85 H33        -1.9750   -2.9330    1.2260 hn        1 MOL      0.276124
     86 H34        -1.2950   -5.1210   -0.4580 h1        1 MOL      0.081711
     87 H35        -4.0010   -5.3740   -0.1430 hc        1 MOL     -0.011529
     88 H36        -3.8300   -4.0630    0.8210 hc        1 MOL     -0.011529
     89 H37        -2.3060   -5.1750    2.3780 hc        1 MOL      0.066455
     90 H38        -2.2660   -6.6250    1.3920 hc        1 MOL      0.066455
     91 H39        -3.2190   -5.9020    4.2670 hn        1 MOL      0.366779
     92 H40        -4.6060   -6.9710    4.3700 hn        1 MOL      0.366779
     93 N9         -2.9620   -2.8980   -2.1560 n         1 MOL     -0.076568
     94 C30        -3.5030   -2.4990   -3.5520 c3        1 MOL     -0.417755
     95 C31        -4.8880   -1.9370   -3.5970 c         1 MOL      0.736041
     96 O16        -5.4540   -1.9940   -4.6430 o         1 MOL     -0.577149
     97 C32        -2.5140   -1.6580   -4.2960 c3        1 MOL      0.172109
     98 C33        -1.3370   -2.5390   -4.6350 c3        1 MOL     -0.271866
     99 C34        -2.0910   -0.4640   -3.4640 c3        1 MOL     -0.271866
    100 H41        -2.9310   -2.2740   -1.3680 hn        1 MOL      0.175061
    101 H42        -3.5270   -3.5000   -4.0020 h1        1 MOL      0.201986
    102 H43        -2.9380   -1.2280   -5.2000 hc        1 MOL      0.041489
    103 H44        -0.7420   -2.8030   -3.7510 hc        1 MOL      0.079348
    104 H45        -1.6640   -3.4710   -5.0920 hc        1 MOL      0.079348
    105 H46        -0.6590   -2.1300   -5.3770 hc        1 MOL      0.079348
    106 H47        -1.1560   -0.0970   -3.8920 hc        1 MOL      0.079348
    107 H48        -2.8540    0.3100   -3.4640 hc        1 MOL      0.079348
    108 H49        -1.9800   -0.7180   -2.4040 hc        1 MOL      0.079348
    109 N10        -5.4330   -1.4890   -2.4720 n         1 MOL     -0.489111
    110 C35        -6.7290   -0.9500   -2.2610 c3        1 MOL      0.239826
    111 C36        -6.7510    0.4050   -1.5280 c         1 MOL      0.521985
    112 O17        -7.5090    1.2860   -1.8610 o         1 MOL     -0.574693
    113 C37        -7.7420   -1.9380   -1.7070 c3        1 MOL     -0.370962
    114 C38        -7.1290   -2.8670   -0.5800 c         1 MOL      0.683584
    115 N11        -7.9490   -3.7640   -0.0670 n         1 MOL     -0.734866
    116 O18        -6.0000   -2.8680   -0.1210 o         1 MOL     -0.528355
    117 H50        -4.7600   -1.3210   -1.7460 hn        1 MOL      0.201238
    118 H51        -7.0550   -0.5820   -3.2370 h1        1 MOL      0.037835
    119 H52        -8.0530   -2.5640   -2.5460 hc        1 MOL      0.105749
    120 H53        -8.6460   -1.4380   -1.3780 hc        1 MOL      0.105749
    121 H54        -8.8520   -3.9650   -0.4870 hn        1 MOL      0.339127
    122 H55        -7.7240   -4.3290    0.7430 hn        1 MOL      0.339127
    123 N12        -5.8540    0.6310   -0.6320 n         1 MOL     -0.382336
    124 C39        -5.9230    1.7540    0.2680 c3        1 MOL      0.074053
    125 C40        -4.6270    2.5290    0.4370 c         1 MOL      0.411490
    126 O19        -3.5860    1.9180    0.2310 o         1 MOL     -0.444954
    127 C41        -6.4380    1.2280    1.6790 c3        1 MOL     -0.173240
    128 C42        -7.7510    0.5310    1.6610 ca        1 MOL      0.014071
    129 C43        -7.8690   -0.6150    2.4700 ca        1 MOL     -0.114403
    130 C44        -8.8750    0.9820    0.9140 ca        1 MOL     -0.114403
    131 C45        -8.9670   -1.4450    2.2670 ca        1 MOL     -0.283488
    132 C46       -10.0300    0.1970    0.7950 ca        1 MOL     -0.283488
    133 C47       -10.0550   -1.0480    1.4640 ca        1 MOL      0.344892
    134 O20       -11.1020   -1.8720    1.3160 oh        1 MOL     -0.528179
    135 H56        -5.2550   -0.1270   -0.3550 hn        1 MOL      0.259255
    136 H57        -6.6270    2.4830   -0.1340 h1        1 MOL      0.060784
    137 H58        -6.5860    2.0380    2.3960 hc        1 MOL      0.091029
    138 H59        -5.6210    0.5780    1.9940 hc        1 MOL      0.091029
    139 H60        -7.0890   -0.8040    3.1930 ha        1 MOL      0.135929
    140 H61        -8.8440    1.8950    0.3420 ha        1 MOL      0.135929
    141 H62        -8.9550   -2.3400    2.8790 ha        1 MOL      0.146545
    142 H63       -10.8920    0.5310    0.2400 ha        1 MOL      0.146545
    143 H64       -11.6730   -1.6080    0.5870 ho        1 MOL      0.371341
    144 N13        -4.7800    3.7300    0.9800 n         1 MOL     -0.327934
    145 C48        -3.7190    4.7020    1.3530 c3        1 MOL      0.079502
    146 C49        -2.7500    5.0760    0.2790 c         1 MOL      0.345249
    147 O21        -2.4060    6.2230    0.1200 o         1 MOL     -0.539698
    148 C50        -3.1170    4.3800    2.7260 c3        1 MOL      0.008842
    149 C51        -4.0650    4.6130    3.9240 c3        1 MOL     -0.161163
    150 C52        -3.3100    4.4350    5.2700 c         1 MOL      0.659413
    151 O22        -3.0470    5.5050    5.8520 o         1 MOL     -0.713429
    152 O23        -3.0790    3.2450    5.6900 o         1 MOL     -0.713429
    153 H65        -5.7230    4.0730    1.0150 hn        1 MOL      0.248320
    154 H66        -4.2410    5.6400    1.5230 h1        1 MOL      0.041918
    155 H67        -2.2380    5.0040    2.9090 hc        1 MOL      0.061454
    156 H68        -2.7820    3.3430    2.7260 hc        1 MOL      0.061454
    157 H69        -4.9620    4.0010    3.8170 hc        1 MOL     -0.012006
    158 H70        -4.3800    5.6570    3.8640 hc        1 MOL     -0.012006
    159 N14        -2.3080    4.2040   -0.6000 n         1 MOL     -0.064096
    160 C53        -1.3670    4.5560   -1.6450 c3        1 MOL     -0.132715
    161 C54        -2.0070    5.4780   -2.7620 c         1 MOL      0.450265
    162 O24        -1.3600    5.9650   -3.6870 o         1 MOL     -0.546685
    163 C55        -0.8450    3.2590   -2.2880 c3        1 MOL      0.032429
    164 C56        -0.3670    2.1520   -1.2880 c3        1 MOL      0.278746
    165 C57         0.6550    2.5240   -0.2230 c         1 MOL      0.607504
    166 O25         1.7040    1.8790   -0.1330 o         1 MOL     -0.656536
    167 O26         0.4160    3.4230    0.6330 o         1 MOL     -0.656536
    168 H71        -2.4670    3.2100   -0.4910 hn        1 MOL      0.091664
    169 H72        -0.5040    5.0470   -1.2050 h1        1 MOL      0.132680
    170 H73        -0.0680    3.6630   -2.9410 hc        1 MOL     -0.034651
    171 H74        -1.6620    2.8360   -2.8560 hc        1 MOL     -0.034651
    172 H75         0.0790    1.3330   -1.8550 hc        1 MOL     -0.109794
    173 H76        -1.1640    1.7220   -0.6750 hc        1 MOL     -0.109794
    174 N15        -3.3360    5.5130   -2.7300 n         1 MOL     -0.131777
    175 C58        -4.1450    6.4380   -3.4720 c3        1 MOL     -0.241271
    176 H77        -4.6980    5.9000   -4.2420 h1        1 MOL      0.090711
    177 H78        -4.8480    6.9280   -2.7980 h1        1 MOL      0.090711
    178 H79        -3.5070    7.1870   -3.9400 h1        1 MOL      0.090711
    179 H80        -3.8240    4.9950   -2.0170 hn        1 MOL      0.140793
    180 Ca1         4.1340    1.8860    0.9020 Ca        1 MOL      1.768333
    181 O27         5.9280    0.9960    2.7130 oh        1 MOL     -0.821681
    182 H81         6.8130    0.6970    2.4900 ho        1 MOL      0.392482
    183 H82         6.0040    1.3230    3.6090 ho        1 MOL      0.392482
    184 O28         4.9970    3.7350    2.9400 oh        1 MOL     -0.821681
    185 H83         5.2610    3.7730    3.8650 ho        1 MOL      0.392482
    186 H84         4.7960    4.6380    2.7120 ho        1 MOL      0.392482
    187 O29         3.0430    4.3540    0.8440 oh        1 MOL     -0.821681
    188 H85         2.1080    4.5680    0.7240 ho        1 MOL      0.392482
    189 H86         3.4930    4.9520    0.2570 ho        1 MOL      0.392482
@<TRIPOS>BOND
     1    1    2 1   
     2    1    4 1   
     3    1    5 1   
     4    1    6 1   
     5    2    3 2   
     6    2    7 1   
     7    7    8 1   
     8    7   15 1   
     9    8    9 1   
    10    8   11 1   
    11    8   16 1   
    12    9   10 2   
    13    9   19 1   
    14   11   12 1   
    15   11   17 1   
    16   11   18 1   
    17   12   13 1   
    18   12   14 1   
    19   19   20 1   
    20   19   27 1   
    21   20   21 1   
    22   20   23 1   
    23   20   28 1   
    24   21   22 2   
    25   21   38 1   
    26   23   24 1   
    27   23   25 1   
    28   23   29 1   
    29   24   26 1   
    30   24   30 1   
    31   24   31 1   
    32   25   32 1   
    33   25   33 1   
    34   25   34 1   
    35   26   35 1   
    36   26   36 1   
    37   26   37 1   
    38   38   39 1   
    39   38   46 1   
    40   39   40 1   
    41   39   42 1   
    42   39   47 1   
    43   40   41 2   
    44   40   50 1   
    45   42   43 1   
    46   42   48 1   
    47   42   49 1   
    48   43   44 1   
    49   43   45 1   
    50   50   51 1   
    51   50   54 1   
    52   51   52 1   
    53   51   55 1   
    54   51   56 1   
    55   52   53 2   
    56   52   57 1   
    57   57   58 1   
    58   57   65 1   
    59   58   59 1   
    60   58   61 1   
    61   58   66 1   
    62   59   60 2   
    63   59   69 1   
    64   61   62 1   
    65   61   67 1   
    66   61   68 1   
    67   62   63 1   
    68   62   64 1   
    69   69   70 1   
    70   69   73 1   
    71   70   71 1   
    72   70   74 1   
    73   70   75 1   
    74   71   72 2   
    75   71   76 1   
    76   76   77 1   
    77   76   85 1   
    78   77   78 1   
    79   77   80 1   
    80   77   86 1   
    81   78   79 2   
    82   78   93 1   
    83   80   81 1   
    84   80   87 1   
    85   80   88 1   
    86   81   82 1   
    87   81   89 1   
    88   81   90 1   
    89   82   83 1   
    90   82   84 2   
    91   83   91 1   
    92   83   92 1   
    93   93   94 1   
    94   93  100 1   
    95   94   95 1   
    96   94   97 1   
    97   94  101 1   
    98   95   96 2   
    99   95  109 1   
   100   97   98 1   
   101   97   99 1   
   102   97  102 1   
   103   98  103 1   
   104   98  104 1   
   105   98  105 1   
   106   99  106 1   
   107   99  107 1   
   108   99  108 1   
   109  109  110 1   
   110  109  117 1   
   111  110  111 1   
   112  110  113 1   
   113  110  118 1   
   114  111  112 2   
   115  111  123 1   
   116  113  114 1   
   117  113  119 1   
   118  113  120 1   
   119  114  115 1   
   120  114  116 2   
   121  115  121 1   
   122  115  122 1   
   123  123  124 1   
   124  123  135 1   
   125  124  125 1   
   126  124  127 1   
   127  124  136 1   
   128  125  126 2   
   129  125  144 1   
   130  127  128 1   
   131  127  137 1   
   132  127  138 1   
   133  128  129 ar  
   134  128  130 ar  
   135  129  131 ar  
   136  129  139 1   
   137  130  132 ar  
   138  130  140 1   
   139  131  133 ar  
   140  131  141 1   
   141  132  133 ar  
   142  132  142 1   
   143  133  134 1   
   144  134  143 1   
   145  144  145 1   
   146  144  153 1   
   147  145  146 1   
   148  145  148 1   
   149  145  154 1   
   150  146  147 2   
   151  146  159 1   
   152  148  149 1   
   153  148  155 1   
   154  148  156 1   
   155  149  150 1   
   156  149  157 1   
   157  149  158 1   
   158  150  151 1   
   159  150  152 1   
   160  159  160 1   
   161  159  168 1   
   162  160  161 1   
   163  160  163 1   
   164  160  169 1   
   165  161  162 2   
   166  161  174 1   
   167  163  164 1   
   168  163  170 1   
   169  163  171 1   
   170  164  165 1   
   171  164  172 1   
   172  164  173 1   
   173  165  166 1   
   174  165  167 1   
   175  174  175 1   
   176  174  179 1   
   177  175  176 1   
   178  175  177 1   
   179  175  178 1   
   180  181  182 1   
   181  181  183 1   
   182  184  185 1   
   183  184  186 1   
   184  187  188 1   
   185  187  189 1   
@<TRIPOS>SUBSTRUCTURE
     1 MOL         1 TEMP              0 ****  ****    0 ROOT
