@<TRIPOS>MOLECULE
MOL
  188   182     1     0     0
SMALL
resp


@<TRIPOS>ATOM
      1 C1          4.3090   -0.8440    5.9710 c3        1 MOL     -0.304522
      2 C2          3.3800   -0.7680    4.7450 c         1 MOL      0.628244
      3 O1          2.1960   -0.4600    4.8830 o         1 MOL     -0.589968
      4 H1          4.1610   -1.7970    6.4800 hc        1 MOL      0.077962
      5 H2          5.3470   -0.7650    5.6470 hc        1 MOL      0.077962
      6 H3          4.0780   -0.0280    6.6550 hc        1 MOL      0.077962
      7 N1          3.9000   -0.9330    3.5030 n         1 MOL     -0.386713
      8 C3          3.1560   -0.6810    2.2280 c3        1 MOL     -0.010393
      9 C4          2.8710   -1.9530    1.3490 c         1 MOL      0.389386
     10 O2          1.9910   -1.9190    0.4610 o         1 MOL     -0.377901
     11 C5          3.9600    0.4090    1.4570 c3        1 MOL     -0.226916
     12 C6          5.3470    0.0900    1.0100 c         1 MOL      0.614580
     13 O3          5.7810   -1.0850    1.0840 o         1 MOL     -0.628223
     14 O4          6.0240    1.0110    0.4990 o         1 MOL     -0.628223
     15 H4          4.8490   -1.2550    3.3930 hn        1 MOL      0.239688
     16 H5          2.1700   -0.2460    2.3610 h1        1 MOL      0.120182
     17 H6          4.0550    1.1970    2.2060 hc        1 MOL      0.065696
     18 H7          3.3190    0.7790    0.6540 hc        1 MOL      0.065696
     19 N2          3.6340   -2.9930    1.6380 n         1 MOL     -0.332926
     20 C7          3.5330   -4.4240    1.3520 c3        1 MOL      0.106693
     21 C8          3.7270   -4.7310   -0.1340 c         1 MOL      0.653071
     22 O5          4.1950   -5.7970   -0.4020 o         1 MOL     -0.597051
     23 C9          4.3610   -5.2100    2.3440 c3        1 MOL     -0.244526
     24 C10         3.9220   -5.1510    3.8350 c3        1 MOL      0.116373
     25 C11         4.8310   -6.0530    4.7240 c3        1 MOL     -0.012099
     26 C12         4.4750   -6.0490    6.1970 c3        1 MOL     -0.016718
     27 N3          5.3240   -7.0550    6.9290 n4        1 MOL     -0.228542
     28 H8          4.4970   -2.8120    2.1440 hn        1 MOL      0.256505
     29 H9          2.4830   -4.6460    1.5280 h1        1 MOL      0.058136
     30 H10         5.4090   -4.9810    2.2100 hc        1 MOL      0.082284
     31 H11         4.2550   -6.2640    2.0690 hc        1 MOL      0.082284
     32 H12         2.8730   -5.3120    4.0950 hc        1 MOL     -0.006307
     33 H13         3.9830   -4.1070    4.1540 hc        1 MOL     -0.006307
     34 H14         5.8690   -5.7170    4.7320 hc        1 MOL      0.026062
     35 H15         4.7910   -7.0520    4.2920 hc        1 MOL      0.026062
     36 H16         3.4200   -6.3400    6.2190 hx        1 MOL      0.087908
     37 H17         4.7170   -5.0750    6.6020 hx        1 MOL      0.087908
     38 H18         5.1770   -7.0080    7.9310 hn        1 MOL      0.295325
     39 H19         5.0850   -7.9970    6.6510 hn        1 MOL      0.295325
     40 H20         6.3180   -6.9790    6.7700 hn        1 MOL      0.295325
     41 N4          3.5560   -3.8600   -1.0880 n         1 MOL     -0.267408
     42 C13         4.0120   -3.9420   -2.4530 c3        1 MOL      0.181486
     43 C14         4.7130   -2.6300   -2.9720 c         1 MOL      0.583298
     44 O6          5.1750   -2.5950   -4.1200 o         1 MOL     -0.515711
     45 C15         2.8780   -4.2990   -3.4050 c3        1 MOL     -0.457663
     46 C16         1.6880   -3.2690   -3.4090 c         1 MOL      0.878359
     47 O7          0.7000   -3.3370   -4.1720 o         1 MOL     -0.730207
     48 O8          1.6480   -2.3820   -2.5470 o         1 MOL     -0.730207
     49 H21         3.1440   -2.9850   -0.8060 hn        1 MOL     -0.210279
     50 H22         4.8220   -4.6670   -2.5040 h1        1 MOL      0.062083
     51 H23         2.5810   -5.2860   -3.0450 hc        1 MOL      0.112423
     52 H24         3.2940   -4.3230   -4.4060 hc        1 MOL      0.112423
     53 N5          4.8420   -1.6290   -2.0300 n         1 MOL     -0.670231
     54 C17         5.3800   -0.3220   -2.3050 c3        1 MOL      0.333666
     55 C18         6.8950   -0.2630   -2.2470 c         1 MOL      0.312744
     56 O9          7.5490   -1.2680   -2.1270 o         1 MOL     -0.480960
     57 H25         4.3230   -1.7310   -1.1640 hn        1 MOL      0.456395
     58 H26         4.9120    0.4230   -1.6760 h1        1 MOL      0.003159
     59 H27         5.0880   -0.0010   -3.3040 h1        1 MOL      0.003159
     60 N6          7.5300    0.9400   -2.2540 n         1 MOL     -0.257889
     61 C19         6.9630    2.2510   -2.5690 c3        1 MOL      0.260672
     62 C20         7.0590    3.3120   -1.4520 c         1 MOL      0.372182
     63 O10         8.1770    3.6080   -0.9180 o         1 MOL     -0.523212
     64 C21         7.4100    2.8430   -3.9070 c3        1 MOL     -0.383745
     65 C22         7.2680    1.8120   -5.0540 c         1 MOL      0.715511
     66 N7          8.3200    1.5720   -5.7110 n         1 MOL     -0.765341
     67 O11         6.1750    1.3070   -5.2520 o         1 MOL     -0.560369
     68 H28         8.5330    0.8630   -2.1550 hn        1 MOL      0.235690
     69 H29         5.8940    2.1330   -2.7540 h1        1 MOL     -0.020321
     70 H30         8.4760    3.0960   -3.8650 hc        1 MOL      0.083694
     71 H31         6.7940    3.7150   -4.1280 hc        1 MOL      0.083694
     72 H32         9.2080    1.9290   -5.3980 hn        1 MOL      0.363015
     73 H33         8.3390    0.6990   -6.2250 hn        1 MOL      0.363015
     74 N8          5.9620    3.7940   -0.8560 n         1 MOL     -0.282560
     75 C23         4.5220    3.4960   -1.2110 c3        1 MOL     -0.286337
     76 C24         3.5410    4.1870   -0.3150 c         1 MOL      0.706700
     77 O12         3.8730    4.9360    0.6100 o         1 MOL     -0.505804
     78 H34         6.0160    4.4160   -0.0620 hn        1 MOL      0.272713
     79 H35         4.3060    2.4300   -1.0910 h1        1 MOL      0.134643
     80 H36         4.3280    3.7170   -2.2580 h1        1 MOL      0.134643
     81 N9          2.1680    4.0260   -0.5880 n         1 MOL     -0.635993
     82 C25         1.0800    4.5460    0.2420 c3        1 MOL      0.046925
     83 C26        -0.2180    3.6930    0.2270 c         1 MOL      0.721711
     84 O13        -0.4740    3.0130   -0.7650 o         1 MOL     -0.538266
     85 C27         0.8110    5.9960   -0.2340 c3        1 MOL     -0.144768
     86 C28         0.1440    6.8710    0.8200 ca        1 MOL      0.020193
     87 C29        -1.1540    7.3050    0.7270 ca        1 MOL     -0.096457
     88 C30         0.9050    7.2540    1.8950 ca        1 MOL     -0.096457
     89 C31        -1.6850    8.1140    1.7820 ca        1 MOL     -0.299033
     90 C32         0.4210    8.0570    2.9700 ca        1 MOL     -0.299033
     91 C33        -0.9050    8.5180    2.9030 ca        1 MOL      0.382294
     92 O14        -1.4470    9.3270    3.8010 oh        1 MOL     -0.490908
     93 H37         1.8900    3.4840   -1.3960 hn        1 MOL      0.311565
     94 H38         1.4760    4.6480    1.2520 h1        1 MOL      0.056883
     95 H39         0.2820    6.0490   -1.1780 hc        1 MOL      0.090046
     96 H40         1.7930    6.4480   -0.4240 hc        1 MOL      0.090046
     97 H41        -1.8120    7.0800   -0.1010 ha        1 MOL      0.128738
     98 H42         1.9270    6.9330    1.9590 ha        1 MOL      0.128738
     99 H43        -2.7340    8.3590    1.8200 ha        1 MOL      0.139963
    100 H44         0.9610    8.0690    3.9010 ha        1 MOL      0.139963
    101 H45        -0.9440    9.3250    4.6100 ho        1 MOL      0.376863
    102 N10        -1.0130    3.8330    1.2750 n         1 MOL     -0.599192
    103 C34        -2.3340    3.2020    1.4190 c3        1 MOL     -0.268101
    104 C35        -3.4050    3.5500    0.3050 c         1 MOL      0.683252
    105 O15        -3.4170    4.6250   -0.2770 o         1 MOL     -0.477606
    106 C36        -2.8260    3.4100    2.8410 c3        1 MOL      0.291901
    107 C37        -2.2470    2.4830    3.9410 c3        1 MOL     -0.008579
    108 C38        -2.7110    4.9830    3.1460 c3        1 MOL     -0.113549
    109 C39        -3.0030    2.4150    5.2650 c3        1 MOL     -0.279419
    110 H46        -0.6840    4.4660    1.9980 hn        1 MOL      0.311978
    111 H47        -2.1020    2.1470    1.2350 h1        1 MOL      0.108307
    112 H48        -3.8870    3.1630    2.8040 hc        1 MOL     -0.038843
    113 H49        -1.2610    2.9060    4.1260 hc        1 MOL      0.036416
    114 H50        -2.1490    1.4670    3.5700 hc        1 MOL      0.036416
    115 H51        -3.0190    5.5150    2.2470 hc        1 MOL      0.026756
    116 H52        -3.2960    5.2060    4.0440 hc        1 MOL      0.026756
    117 H53        -1.7020    5.3220    3.3380 hc        1 MOL      0.026756
    118 H54        -2.3880    2.0540    6.0940 hc        1 MOL      0.078623
    119 H55        -3.2020    3.4150    5.6470 hc        1 MOL      0.078623
    120 H56        -3.9270    1.8610    5.1400 hc        1 MOL      0.078623
    121 N11        -4.3280    2.5720   -0.0580 n         1 MOL     -0.495452
    122 C40        -5.3610    2.7350   -1.0690 c3        1 MOL      0.026978
    123 C41        -5.6760    1.4280   -1.8540 c         1 MOL      0.424754
    124 O16        -5.4750    0.3030   -1.3610 o         1 MOL     -0.374697
    125 C42        -6.6740    3.1850   -0.3900 c3        1 MOL      0.092539
    126 O17        -6.9460    2.4570    0.7800 oh        1 MOL     -0.586534
    127 H57        -4.3270    1.7340    0.4930 hn        1 MOL      0.266370
    128 H58        -5.0900    3.5960   -1.6690 h1        1 MOL      0.077866
    129 H59        -7.5600    3.1840   -1.0370 h1        1 MOL      0.040296
    130 H60        -6.5660    4.1900    0.0020 h1        1 MOL      0.040296
    131 H61        -7.6110    2.8990    1.3230 ho        1 MOL      0.410714
    132 N12        -6.3690    1.5220   -2.9650 n         1 MOL     -0.392679
    133 C43        -6.7590    0.3440   -3.8160 c3        1 MOL      0.054703
    134 C44        -7.8890   -0.5270   -3.2630 c         1 MOL      0.435095
    135 O18        -8.0120   -1.6150   -3.8350 o         1 MOL     -0.456176
    136 C45        -5.5010   -0.4580   -4.2230 c3        1 MOL     -0.170146
    137 H62        -6.6510    2.4600   -3.2130 hn        1 MOL      0.264841
    138 H63        -7.1600    0.7430   -4.7490 h1        1 MOL      0.103500
    139 H64        -4.6990    0.2580   -4.4440 hc        1 MOL      0.068906
    140 H65        -5.1830   -1.0960   -3.4000 hc        1 MOL      0.068906
    141 H66        -5.6490   -1.0300   -5.1330 hc        1 MOL      0.068906
    142 N13        -8.6750   -0.2280   -2.2100 n         1 MOL     -0.524541
    143 C46        -9.5310   -1.1510   -1.4950 c3        1 MOL      0.356083
    144 C47        -8.8130   -2.4370   -0.8910 c         1 MOL      0.286043
    145 O19        -9.5450   -3.4230   -0.6480 o         1 MOL     -0.442502
    146 C48       -10.7390   -1.4100   -2.3820 c3        1 MOL     -0.265290
    147 H67        -8.6390    0.7220   -1.8530 hn        1 MOL      0.290249
    148 H68        -9.9420   -0.6310   -0.6350 h1        1 MOL     -0.001147
    149 H69       -11.1380   -0.4520   -2.7100 hc        1 MOL      0.073195
    150 H70       -10.5350   -2.0970   -3.2190 hc        1 MOL      0.073195
    151 H71       -11.4620   -1.8600   -1.7140 hc        1 MOL      0.073195
    152 N14        -7.5070   -2.3390   -0.5170 n         1 MOL     -0.148348
    153 C49        -6.6470   -3.3820    0.1140 c3        1 MOL     -0.231390
    154 C50        -7.1520   -3.8690    1.4510 c         1 MOL      0.505762
    155 O20        -7.5030   -5.0370    1.5990 o         1 MOL     -0.504257
    156 C51        -5.2030   -2.9210    0.0430 c3        1 MOL      0.170431
    157 C52        -4.2600   -3.9500    0.6310 c3        1 MOL     -0.162624
    158 C53        -2.7960   -3.8470    0.1850 c         1 MOL      0.722212
    159 O21        -1.9600   -3.2670    0.9430 o         1 MOL     -0.726510
    160 O22        -2.3800   -4.1730   -0.9870 o         1 MOL     -0.726510
    161 H72        -7.0530   -1.4420   -0.5700 hn        1 MOL      0.080636
    162 H73        -6.8180   -4.2560   -0.5030 h1        1 MOL      0.166520
    163 H74        -5.1090   -1.9770    0.5770 hc        1 MOL      0.000215
    164 H75        -4.9250   -2.6710   -0.9820 hc        1 MOL      0.000215
    165 H76        -4.5840   -4.9540    0.3350 hc        1 MOL      0.028707
    166 H77        -4.2510   -3.8940    1.7190 hc        1 MOL      0.028707
    167 N15        -7.3220   -2.9370    2.3630 n         1 MOL     -0.233336
    168 C54        -7.9090   -3.1430    3.7070 c3        1 MOL     -0.326373
    169 H78        -7.4010   -3.9720    4.2020 h1        1 MOL      0.133781
    170 H79        -7.7870   -2.2370    4.3000 h1        1 MOL      0.133781
    171 H80        -8.9700   -3.3750    3.6090 h1        1 MOL      0.133781
    172 H81        -6.9790   -2.0110    2.1480 hn        1 MOL      0.224776
    173 Ca1        -0.3130   -1.8580   -0.8290 Ca        1 MOL      1.769988
    174 O23         0.2070   -4.4080   -0.7820 oh        1 MOL     -0.900114
    175 H82        -0.7400   -4.4930   -0.8970 ho        1 MOL      0.419440
    176 H83         0.5550   -5.2710   -0.9960 ho        1 MOL      0.419440
    177 O24        -1.3590   -2.1310   -3.2110 oh        1 MOL     -0.900114
    178 H84        -2.2540   -2.3540   -3.4650 ho        1 MOL      0.419440
    179 H85        -0.8070   -2.5830   -3.8550 ho        1 MOL      0.419440
    180 O25        -2.7230   -0.9170   -1.0500 oh        1 MOL     -0.900114
    181 H86        -2.6060   -0.2140   -1.6950 ho        1 MOL      0.419440
    182 H87        -3.6690   -1.0440   -1.0050 ho        1 MOL      0.419440
    183 O26        -0.4990   -0.3560    1.3670 oh        1 MOL     -0.900114
    184 H88        -0.1150    0.5000    1.5440 ho        1 MOL      0.419440
    185 H89        -1.3770   -0.3080    1.7510 ho        1 MOL      0.419440
    186 O27         0.2200    0.5990   -1.3100 oh        1 MOL     -0.900114
    187 H90        -0.1910    1.4520   -1.1710 ho        1 MOL      0.419440
    188 H91         0.9400    0.7830   -1.9220 ho        1 MOL      0.419440
@<TRIPOS>BOND
     1    1    2 1   
     2    1    4 1   
     3    1    5 1   
     4    1    6 1   
     5    2    3 2   
     6    2    7 1   
     7    7    8 1   
     8    7   15 1   
     9    8    9 1   
    10    8   11 1   
    11    8   16 1   
    12    9   10 2   
    13    9   19 1   
    14   11   12 1   
    15   11   17 1   
    16   11   18 1   
    17   12   13 1   
    18   12   14 1   
    19   19   20 1   
    20   19   28 1   
    21   20   21 1   
    22   20   23 1   
    23   20   29 1   
    24   21   22 2   
    25   21   41 1   
    26   23   24 1   
    27   23   30 1   
    28   23   31 1   
    29   24   25 1   
    30   24   32 1   
    31   24   33 1   
    32   25   26 1   
    33   25   34 1   
    34   25   35 1   
    35   26   27 1   
    36   26   36 1   
    37   26   37 1   
    38   27   38 1   
    39   27   39 1   
    40   27   40 1   
    41   41   42 1   
    42   41   49 1   
    43   42   43 1   
    44   42   45 1   
    45   42   50 1   
    46   43   44 2   
    47   43   53 1   
    48   45   46 1   
    49   45   51 1   
    50   45   52 1   
    51   46   47 1   
    52   46   48 1   
    53   53   54 1   
    54   53   57 1   
    55   54   55 1   
    56   54   58 1   
    57   54   59 1   
    58   55   56 2   
    59   55   60 1   
    60   60   61 1   
    61   60   68 1   
    62   61   62 1   
    63   61   64 1   
    64   61   69 1   
    65   62   63 2   
    66   62   74 1   
    67   64   65 1   
    68   64   70 1   
    69   64   71 1   
    70   65   66 1   
    71   65   67 2   
    72   66   72 1   
    73   66   73 1   
    74   74   75 1   
    75   74   78 1   
    76   75   76 1   
    77   75   79 1   
    78   75   80 1   
    79   76   77 2   
    80   76   81 1   
    81   81   82 1   
    82   81   93 1   
    83   82   83 1   
    84   82   85 1   
    85   82   94 1   
    86   83   84 2   
    87   83  102 1   
    88   85   86 1   
    89   85   95 1   
    90   85   96 1   
    91   86   87 ar  
    92   86   88 ar  
    93   87   89 ar  
    94   87   97 1   
    95   88   90 ar  
    96   88   98 1   
    97   89   91 ar  
    98   89   99 1   
    99   90   91 ar  
   100   90  100 1   
   101   91   92 1   
   102   92  101 1   
   103  102  103 1   
   104  102  110 1   
   105  103  104 1   
   106  103  106 1   
   107  103  111 1   
   108  104  105 2   
   109  104  121 1   
   110  106  107 1   
   111  106  108 1   
   112  106  112 1   
   113  107  109 1   
   114  107  113 1   
   115  107  114 1   
   116  108  115 1   
   117  108  116 1   
   118  108  117 1   
   119  109  118 1   
   120  109  119 1   
   121  109  120 1   
   122  121  122 1   
   123  121  127 1   
   124  122  123 1   
   125  122  125 1   
   126  122  128 1   
   127  123  124 2   
   128  123  132 1   
   129  125  126 1   
   130  125  129 1   
   131  125  130 1   
   132  126  131 1   
   133  132  133 1   
   134  132  137 1   
   135  133  134 1   
   136  133  136 1   
   137  133  138 1   
   138  134  135 2   
   139  134  142 1   
   140  136  139 1   
   141  136  140 1   
   142  136  141 1   
   143  142  143 1   
   144  142  147 1   
   145  143  144 1   
   146  143  146 1   
   147  143  148 1   
   148  144  145 2   
   149  144  152 1   
   150  146  149 1   
   151  146  150 1   
   152  146  151 1   
   153  152  153 1   
   154  152  161 1   
   155  153  154 1   
   156  153  156 1   
   157  153  162 1   
   158  154  155 2   
   159  154  167 1   
   160  156  157 1   
   161  156  163 1   
   162  156  164 1   
   163  157  158 1   
   164  157  165 1   
   165  157  166 1   
   166  158  159 1   
   167  158  160 1   
   168  167  168 1   
   169  167  172 1   
   170  168  169 1   
   171  168  170 1   
   172  168  171 1   
   173  174  175 1   
   174  174  176 1   
   175  177  178 1   
   176  177  179 1   
   177  180  181 1   
   178  180  182 1   
   179  183  184 1   
   180  183  185 1   
   181  186  187 1   
   182  186  188 1   
@<TRIPOS>SUBSTRUCTURE
     1 MOL         1 TEMP              0 ****  ****    0 ROOT
