@<TRIPOS>MOLECULE
MOL
  184   179     1     0     0
SMALL
resp


@<TRIPOS>ATOM
      1 C1         -9.0800    6.2070    0.5380 c3        1 MOL     -0.367498
      2 C2         -8.3300    5.2030   -0.3450 c         1 MOL      0.709112
      3 O1         -8.2680    5.3870   -1.5620 o         1 MOL     -0.609458
      4 H1        -10.1480    6.1500    0.3260 hc        1 MOL      0.091022
      5 H2         -8.9060    5.9700    1.5880 hc        1 MOL      0.091022
      6 H3         -8.7210    7.2150    0.3270 hc        1 MOL      0.091022
      7 N1         -7.8050    4.1000    0.1160 n         1 MOL     -0.524101
      8 C3         -7.8930    3.5980    1.4960 c3        1 MOL      0.182074
      9 C4         -7.9550    2.0390    1.4930 c         1 MOL      0.278883
     10 O2         -7.3450    1.4170    0.6240 o         1 MOL     -0.096143
     11 C5         -6.6350    4.0960    2.2570 c3        1 MOL     -0.252696
     12 C6         -5.2630    3.9040    1.6150 c         1 MOL      0.704953
     13 O3         -4.2380    4.3760    2.1380 o         1 MOL     -0.662607
     14 O4         -5.1100    3.2360    0.5400 o         1 MOL     -0.662607
     15 H4         -7.3290    3.5880   -0.6210 hn        1 MOL      0.248808
     16 H5         -8.7760    3.8930    2.0650 h1        1 MOL      0.032500
     17 H6         -6.6250    3.5930    3.2340 hc        1 MOL      0.044900
     18 H7         -6.7870    5.1160    2.6210 hc        1 MOL      0.044900
     19 N2         -8.8010    1.4590    2.3570 n         1 MOL     -0.600882
     20 C7         -8.9400    0.0190    2.6300 c3        1 MOL      0.479692
     21 C8         -9.6800   -0.7650    1.4710 c         1 MOL      0.295448
     22 O5        -10.5650   -1.5960    1.6740 o         1 MOL     -0.514955
     23 C9         -9.5430   -0.2240    4.0420 c3        1 MOL     -0.344000
     24 H8         -9.2820    2.0550    3.0150 hn        1 MOL      0.326066
     25 H9         -7.9370   -0.3800    2.5270 h1        1 MOL     -0.059779
     26 H10       -10.3180    0.4810    4.3190 hc        1 MOL      0.091129
     27 H11        -9.9450   -1.2340    4.2000 hc        1 MOL      0.091129
     28 H12        -8.6860   -0.1270    4.7050 hc        1 MOL      0.091129
     29 N3         -9.1500   -0.6170    0.2350 n         1 MOL     -0.017293
     30 C10        -9.3690   -1.4670   -0.9380 c3        1 MOL     -0.005508
     31 C11        -8.4550   -2.7390   -0.7730 c         1 MOL      0.494935
     32 O6         -7.7120   -2.9040    0.2290 o         1 MOL     -0.489298
     33 C12        -9.1510   -0.7390   -2.2270 c3        1 MOL     -0.265569
     34 C13        -7.7690   -0.0900   -2.4870 c         1 MOL      0.744777
     35 O7         -6.8440   -0.5250   -1.7320 o         1 MOL     -0.672687
     36 O8         -7.6220    0.8250   -3.3160 o         1 MOL     -0.672687
     37 H13        -8.2990   -0.0780    0.1540 hn        1 MOL     -0.172014
     38 H14       -10.4360   -1.7100   -0.9720 h1        1 MOL      0.066565
     39 H15        -9.8640    0.0890   -2.2270 hc        1 MOL      0.075378
     40 H16        -9.3670   -1.3960   -3.0720 hc        1 MOL      0.075378
     41 N4         -8.6640   -3.7120   -1.6630 n         1 MOL     -0.382810
     42 C14        -7.8370   -4.9270   -1.7550 c3        1 MOL     -0.201089
     43 C15        -6.3120   -4.7080   -1.9850 c         1 MOL      0.460858
     44 O9         -5.6150   -5.7140   -2.0590 o         1 MOL     -0.510864
     45 H17        -9.3000   -3.4340   -2.4000 hn        1 MOL      0.290644
     46 H18        -8.1960   -5.5860   -2.5500 h1        1 MOL      0.149809
     47 H19        -7.9820   -5.4630   -0.8260 h1        1 MOL      0.149809
     48 N5         -5.7300   -3.4590   -2.2450 n         1 MOL     -0.188164
     49 C16        -4.3630   -3.1450   -2.5600 c3        1 MOL      0.005646
     50 C17        -3.6720   -2.2720   -1.5270 c         1 MOL      0.473666
     51 O10        -3.7720   -1.0370   -1.4530 o         1 MOL     -0.499269
     52 C18        -4.5200   -2.3650   -3.8850 c3        1 MOL     -0.258168
     53 C19        -3.2140   -1.9470   -4.5500 c         1 MOL      0.742805
     54 N6         -3.1440   -0.7890   -5.2690 n         1 MOL     -0.926955
     55 O11        -2.2060   -2.6080   -4.3980 o         1 MOL     -0.528605
     56 H20        -6.4220   -2.7190   -2.2970 hn        1 MOL      0.188008
     57 H21        -3.8250   -4.0570   -2.8250 h1        1 MOL      0.102631
     58 H22        -5.1180   -1.4860   -3.6530 hc        1 MOL      0.056111
     59 H23        -5.1480   -2.9540   -4.5580 hc        1 MOL      0.056111
     60 H24        -3.9930   -0.2500   -5.3910 hn        1 MOL      0.402676
     61 H25        -2.2680   -0.4890   -5.6630 hn        1 MOL      0.402676
     62 N7         -2.9600   -2.9290   -0.6070 n         1 MOL     -0.622259
     63 C20        -2.2210   -2.3940    0.5480 c3        1 MOL      0.537136
     64 C21        -2.0660   -3.1960    1.8390 c         1 MOL      0.238463
     65 O12        -2.6890   -4.2590    1.8840 o         1 MOL     -0.500244
     66 H26        -2.8840   -3.9310   -0.7480 hn        1 MOL      0.348966
     67 H27        -2.5890   -1.3850    0.7570 h1        1 MOL     -0.038956
     68 H28        -1.1910   -2.2920    0.1980 h1        1 MOL     -0.038956
     69 N8         -1.1810   -2.7670    2.7990 n         1 MOL     -0.182714
     70 C22        -0.5640   -1.4630    2.9080 c3        1 MOL     -0.369603
     71 C23         0.5500   -1.4850    1.8880 c         1 MOL      0.199562
     72 O13         1.0140   -2.5100    1.4400 o         1 MOL     -0.376745
     73 C24         0.0180   -1.2680    4.3470 c3        1 MOL      0.379388
     74 C25        -1.0840   -1.2400    5.4100 c3        1 MOL     -0.244144
     75 O14         0.9050   -2.3530    4.6920 oh        1 MOL     -0.535791
     76 H29        -0.9360   -3.4190    3.5280 hn        1 MOL      0.301774
     77 H30        -1.2340   -0.6460    2.6110 h1        1 MOL      0.179251
     78 H31         0.5600   -0.3220    4.3150 h1        1 MOL      0.045121
     79 H32         1.2700   -2.0780    5.5350 ho        1 MOL      0.393508
     80 H33        -0.5450   -0.9070    6.2950 hc        1 MOL      0.048235
     81 H34        -1.8160   -0.4560    5.2010 hc        1 MOL      0.048235
     82 H35        -1.6310   -2.1820    5.3570 hc        1 MOL      0.048235
     83 N9          0.8800   -0.2490    1.4680 n         1 MOL     -0.342239
     84 C26         2.0190    0.1170    0.6110 c3        1 MOL     -0.020924
     85 C27         3.0330    1.1270    1.2860 c         1 MOL      0.368951
     86 O15         2.7390    2.2940    1.4700 o         1 MOL     -0.502057
     87 C28         1.5390    0.6980   -0.7340 c3        1 MOL     -0.093766
     88 C29         0.5700   -0.2150   -1.5370 c3        1 MOL     -0.000316
     89 C30         2.7590    1.1340   -1.5850 c3        1 MOL     -0.034102
     90 C31         1.0140   -1.6820   -1.7530 c3        1 MOL     -0.051616
     91 H36         0.2930    0.4860    1.8300 hn        1 MOL      0.345929
     92 H37         2.5460   -0.8210    0.4000 h1        1 MOL      0.119733
     93 H38         0.9770    1.6260   -0.6220 hc        1 MOL      0.049595
     94 H39         0.4970    0.2660   -2.5170 hc        1 MOL     -0.021389
     95 H40        -0.4160   -0.1840   -1.0980 hc        1 MOL     -0.021389
     96 H41         2.3960    1.2620   -2.6080 hc        1 MOL      0.029818
     97 H42         3.1900    2.0630   -1.2130 hc        1 MOL      0.029818
     98 H43         3.6200    0.4730   -1.5510 hc        1 MOL      0.029818
     99 H44         0.4560   -2.0230   -2.6310 hc        1 MOL      0.025395
    100 H45         2.0510   -1.7610   -2.0690 hc        1 MOL      0.025395
    101 H46         0.7950   -2.3420   -0.9170 hc        1 MOL      0.025395
    102 N10         4.2340    0.7070    1.7310 n         1 MOL     -0.264731
    103 C32         4.8220   -0.6270    1.8940 c3        1 MOL      0.115753
    104 C33         6.3590   -0.4630    1.8540 c         1 MOL      0.538572
    105 O16         6.9210    0.4450    2.4210 o         1 MOL     -0.466496
    106 C34         4.2460   -1.4290    3.1430 c3        1 MOL     -0.266782
    107 C35         4.6380   -0.7600    4.4080 c         1 MOL      0.652684
    108 O17         5.6410   -1.2110    5.0470 o         1 MOL     -0.704637
    109 O18         3.9410    0.1870    4.8800 o         1 MOL     -0.704637
    110 H47         4.7790    1.4650    2.0970 hn        1 MOL      0.319992
    111 H48         4.4830   -1.2120    1.0370 h1        1 MOL      0.009627
    112 H49         4.6470   -2.4360    3.0600 hc        1 MOL      0.060517
    113 H50         3.1540   -1.4470    3.0710 hc        1 MOL      0.060517
    114 N11         6.9950   -1.3240    1.0680 n         1 MOL     -0.588200
    115 C36         8.4100   -1.2920    0.6580 c3        1 MOL      0.427965
    116 C37         8.5420   -1.7490   -0.8650 c         1 MOL      0.270362
    117 O19         7.9210   -2.7230   -1.2390 o         1 MOL     -0.521571
    118 C38         9.2670   -2.2020    1.5380 c3        1 MOL     -0.076472
    119 C39        10.7830   -1.9930    1.2430 ca        1 MOL     -0.006187
    120 C40        11.4510   -2.8710    0.3690 ca        1 MOL     -0.146509
    121 C41        11.4410   -0.8770    1.8560 ca        1 MOL     -0.146509
    122 C42        12.8270   -2.5620    0.0560 ca        1 MOL     -0.093266
    123 C43        12.7460   -0.5330    1.5260 ca        1 MOL     -0.093266
    124 C44        13.4620   -1.4040    0.5950 ca        1 MOL     -0.174064
    125 H51         6.3950   -1.9970    0.6270 hn        1 MOL      0.282283
    126 H52         8.7760   -0.2580    0.6550 h1        1 MOL     -0.050982
    127 H53         8.9940   -3.2360    1.3420 hc        1 MOL      0.043996
    128 H54         8.9550   -2.0670    2.5690 hc        1 MOL      0.043996
    129 H55        10.9840   -3.7360   -0.0660 ha        1 MOL      0.136339
    130 H56        10.8700   -0.1440    2.4210 ha        1 MOL      0.136339
    131 H57        13.2910   -3.2940   -0.5960 ha        1 MOL      0.106984
    132 H58        13.1770    0.3580    1.9710 ha        1 MOL      0.106984
    133 H59        14.5320   -1.2640    0.4930 ha        1 MOL      0.108289
    134 N12         9.4440   -1.1830   -1.7000 n         1 MOL      0.027951
    135 C45        10.1820    0.0570   -1.4880 c3        1 MOL     -0.154902
    136 C46         9.2680    1.2850   -1.5890 c         1 MOL      0.530226
    137 O20         9.8000    2.3650   -1.4090 o         1 MOL     -0.553851
    138 C47        11.3900    0.0100   -2.4270 c3        1 MOL      0.046530
    139 C48        10.7990   -0.7140   -3.6150 c3        1 MOL      0.005196
    140 C49         9.7720   -1.6370   -3.0620 c3        1 MOL     -0.352405
    141 H60        10.6250    0.1110   -0.4950 h1        1 MOL      0.145488
    142 H61        11.6080    1.0240   -2.7640 hc        1 MOL      0.004461
    143 H62        12.2840   -0.4240   -1.9820 hc        1 MOL      0.004461
    144 H63        10.2090    0.0280   -4.1450 hc        1 MOL      0.034257
    145 H64        11.5560   -1.0940   -4.3080 hc        1 MOL      0.034257
    146 H65         8.8750   -1.6240   -3.6870 h1        1 MOL      0.124149
    147 H66        10.1620   -2.6520   -2.9820 h1        1 MOL      0.124149
    148 N13         7.9630    1.1940   -1.8330 n         1 MOL     -0.353053
    149 C50         7.0850    2.3640   -1.8630 c3        1 MOL      0.107824
    150 C51         6.1300    2.2880   -3.0360 c         1 MOL      0.331381
    151 O21         5.6320    1.2430   -3.3970 o         1 MOL     -0.561938
    152 C52         6.1820    2.3500   -0.5500 c3        1 MOL      0.133088
    153 C53         6.8610    3.1050    0.6210 c3        1 MOL      0.020924
    154 C54         6.7520    4.6040    0.4990 c         1 MOL      0.676729
    155 O22         5.9690    5.2180    1.3530 o         1 MOL     -0.726530
    156 O23         7.4240    5.1800   -0.3340 o         1 MOL     -0.726530
    157 H67         7.4780    0.3270   -2.0010 hn        1 MOL      0.262730
    158 H68         7.7460    3.2300   -1.9620 h1        1 MOL      0.104300
    159 H69         5.9470    1.3410   -0.2280 hc        1 MOL     -0.038570
    160 H70         5.2550    2.8860   -0.7720 hc        1 MOL     -0.038570
    161 H71         7.8940    2.7780    0.7560 hc        1 MOL     -0.052063
    162 H72         6.2900    2.8420    1.5030 hc        1 MOL     -0.052063
    163 N14         5.9190    3.3770   -3.7550 n         1 MOL     -0.309528
    164 C55         6.2350    4.7630   -3.4450 c3        1 MOL     -0.112976
    165 H73         5.3420    5.2630   -3.0690 h1        1 MOL      0.068774
    166 H74         7.0160    4.7970   -2.6860 h1        1 MOL      0.068774
    167 H75         6.5810    5.2690   -4.3470 h1        1 MOL      0.068774
    168 H76         5.3930    3.2690   -4.6090 hn        1 MOL      0.260107
    169 Ca1        -5.0900    0.9730   -0.5070 Ca        1 MOL      1.711995
    170 O24        -3.7160    1.5680   -2.6020 oh        1 MOL     -0.851818
    171 H77        -3.8260    1.4750   -3.5510 ho        1 MOL      0.411157
    172 H78        -2.7820    1.7440   -2.4890 ho        1 MOL      0.411157
    173 O25        -5.8350   -1.3440    0.9590 oh        1 MOL     -0.851818
    174 H79        -5.7820   -1.6440    1.8700 ho        1 MOL      0.411157
    175 H80        -6.4900   -1.9080    0.5580 ho        1 MOL      0.411157
    176 O26        -4.7710    0.7760    2.2670 oh        1 MOL     -0.851818
    177 H81        -5.1260   -0.0040    2.6910 ho        1 MOL      0.411157
    178 H82        -4.4090    1.2880    2.9910 ho        1 MOL      0.411157
    179 O27        -6.3500    2.7510   -2.0780 oh        1 MOL     -0.851818
    180 H83        -6.8050    2.1490   -2.6620 ho        1 MOL      0.411157
    181 H84        -6.1180    3.5040   -2.6280 ho        1 MOL      0.411157
    182 O28        -2.4460    1.6020   -0.0990 oh        1 MOL     -0.851818
    183 H85        -1.9950    1.3880   -0.9220 ho        1 MOL      0.411157
    184 H86        -1.7440    1.7640    0.5240 ho        1 MOL      0.411157
@<TRIPOS>BOND
     1    1    2 1   
     2    1    4 1   
     3    1    5 1   
     4    1    6 1   
     5    2    3 2   
     6    2    7 1   
     7    7    8 1   
     8    7   15 1   
     9    8    9 1   
    10    8   11 1   
    11    8   16 1   
    12    9   10 2   
    13    9   19 1   
    14   11   12 1   
    15   11   17 1   
    16   11   18 1   
    17   12   13 1   
    18   12   14 1   
    19   19   20 1   
    20   19   24 1   
    21   20   21 1   
    22   20   23 1   
    23   20   25 1   
    24   21   22 2   
    25   21   29 1   
    26   23   26 1   
    27   23   27 1   
    28   23   28 1   
    29   29   30 1   
    30   29   37 1   
    31   30   31 1   
    32   30   33 1   
    33   30   38 1   
    34   31   32 2   
    35   31   41 1   
    36   33   34 1   
    37   33   39 1   
    38   33   40 1   
    39   34   35 1   
    40   34   36 1   
    41   41   42 1   
    42   41   45 1   
    43   42   43 1   
    44   42   46 1   
    45   42   47 1   
    46   43   44 2   
    47   43   48 1   
    48   48   49 1   
    49   48   56 1   
    50   49   50 1   
    51   49   52 1   
    52   49   57 1   
    53   50   51 2   
    54   50   62 1   
    55   52   53 1   
    56   52   58 1   
    57   52   59 1   
    58   53   54 1   
    59   53   55 2   
    60   54   60 1   
    61   54   61 1   
    62   62   63 1   
    63   62   66 1   
    64   63   64 1   
    65   63   67 1   
    66   63   68 1   
    67   64   65 2   
    68   64   69 1   
    69   69   70 1   
    70   69   76 1   
    71   70   71 1   
    72   70   73 1   
    73   70   77 1   
    74   71   72 2   
    75   71   83 1   
    76   73   74 1   
    77   73   75 1   
    78   73   78 1   
    79   74   80 1   
    80   74   81 1   
    81   74   82 1   
    82   75   79 1   
    83   83   84 1   
    84   83   91 1   
    85   84   85 1   
    86   84   87 1   
    87   84   92 1   
    88   85   86 2   
    89   85  102 1   
    90   87   88 1   
    91   87   89 1   
    92   87   93 1   
    93   88   90 1   
    94   88   94 1   
    95   88   95 1   
    96   89   96 1   
    97   89   97 1   
    98   89   98 1   
    99   90   99 1   
   100   90  100 1   
   101   90  101 1   
   102  102  103 1   
   103  102  110 1   
   104  103  104 1   
   105  103  106 1   
   106  103  111 1   
   107  104  105 2   
   108  104  114 1   
   109  106  107 1   
   110  106  112 1   
   111  106  113 1   
   112  107  108 1   
   113  107  109 1   
   114  114  115 1   
   115  114  125 1   
   116  115  116 1   
   117  115  118 1   
   118  115  126 1   
   119  116  117 2   
   120  116  134 1   
   121  118  119 1   
   122  118  127 1   
   123  118  128 1   
   124  119  120 ar  
   125  119  121 ar  
   126  120  122 ar  
   127  120  129 1   
   128  121  123 ar  
   129  121  130 1   
   130  122  124 ar  
   131  122  131 1   
   132  123  124 ar  
   133  123  132 1   
   134  124  133 1   
   135  134  135 1   
   136  134  140 1   
   137  135  136 1   
   138  135  138 1   
   139  135  141 1   
   140  136  137 2   
   141  136  148 1   
   142  138  139 1   
   143  138  142 1   
   144  138  143 1   
   145  139  140 1   
   146  139  144 1   
   147  139  145 1   
   148  140  146 1   
   149  140  147 1   
   150  148  149 1   
   151  148  157 1   
   152  149  150 1   
   153  149  152 1   
   154  149  158 1   
   155  150  151 2   
   156  150  163 1   
   157  152  153 1   
   158  152  159 1   
   159  152  160 1   
   160  153  154 1   
   161  153  161 1   
   162  153  162 1   
   163  154  155 1   
   164  154  156 1   
   165  163  164 1   
   166  163  168 1   
   167  164  165 1   
   168  164  166 1   
   169  164  167 1   
   170  170  171 1   
   171  170  172 1   
   172  173  174 1   
   173  173  175 1   
   174  176  177 1   
   175  176  178 1   
   176  179  180 1   
   177  179  181 1   
   178  182  183 1   
   179  182  184 1   
@<TRIPOS>SUBSTRUCTURE
     1 MOL         1 TEMP              0 ****  ****    0 ROOT
