@<TRIPOS>MOLECULE
MOL
  192   187     1     0     0
SMALL
resp


@<TRIPOS>ATOM
      1 C1          5.2800    2.3300    6.1150 c3        1 MOL     -0.298111
      2 C2          4.8620    2.0460    4.6470 c         1 MOL      0.668836
      3 O1          4.4360    2.9930    3.9730 o         1 MOL     -0.560821
      4 H1          5.5620    1.3960    6.5990 hc        1 MOL      0.069326
      5 H2          6.1290    3.0140    6.1260 hc        1 MOL      0.069326
      6 H3          4.4440    2.7800    6.6510 hc        1 MOL      0.069326
      7 N1          5.1210    0.8000    4.2720 n         1 MOL     -0.506261
      8 C3          4.9690    0.3610    2.8090 c3        1 MOL      0.588342
      9 C4          3.5480    0.3290    2.1900 c         1 MOL      0.077312
     10 O2          3.4000   -0.1790    1.1020 o         1 MOL     -0.256555
     11 C5          5.6690   -1.0080    2.6700 c3        1 MOL     -0.378875
     12 C6          7.1220   -0.9560    3.1980 c         1 MOL      0.776587
     13 O3          7.3670   -0.8840    4.4200 o         1 MOL     -0.693239
     14 O4          8.0480   -1.0660    2.4460 o         1 MOL     -0.693239
     15 H4          5.4900    0.1760    4.9740 hn        1 MOL      0.214352
     16 H5          5.5850    1.0250    2.2010 h1        1 MOL     -0.030951
     17 H6          5.8270   -1.2320    1.6120 hc        1 MOL      0.032329
     18 H7          5.0640   -1.7850    3.1300 hc        1 MOL      0.032329
     19 N2          2.5450    0.8580    2.9340 n         1 MOL     -0.516147
     20 C7          1.1240    0.7680    2.5310 c3        1 MOL      0.239108
     21 C8          0.5230    2.1810    2.1390 c         1 MOL      0.325954
     22 O5          0.8640    3.2030    2.7710 o         1 MOL     -0.458434
     23 C9          0.5150    0.0670    3.7310 c3        1 MOL     -0.160634
     24 C10         0.7800   -1.3960    3.7020 c3        1 MOL     -0.100146
     25 C11        -0.0740   -2.1390    4.7780 c3        1 MOL     -0.084461
     26 C12         0.2590   -3.6290    4.9310 c3        1 MOL      0.022037
     27 N3          1.3640   -3.8310    5.9950 n4        1 MOL     -0.430156
     28 H8          2.8420    1.5080    3.6520 hn        1 MOL      0.262990
     29 H9          1.0440    0.1060    1.6690 h1        1 MOL      0.020975
     30 H10        -0.5610    0.2110    3.5790 hc        1 MOL      0.058638
     31 H11         0.6200    0.4770    4.7390 hc        1 MOL      0.058638
     32 H12         1.8510   -1.5850    3.8180 hc        1 MOL      0.110518
     33 H13         0.4000   -1.7890    2.7530 hc        1 MOL      0.110518
     34 H14        -1.1250   -2.0610    4.4930 hc        1 MOL      0.063863
     35 H15         0.1580   -1.6040    5.6990 hc        1 MOL      0.063863
     36 H16         0.4780   -3.9950    3.9290 hx        1 MOL      0.093844
     37 H17        -0.5860   -4.1850    5.3330 hx        1 MOL      0.093844
     38 H18         2.2400   -3.6330    5.5330 hn        1 MOL      0.343100
     39 H19         1.1980   -3.3410    6.8670 hn        1 MOL      0.343100
     40 H20         1.4430   -4.8230    6.1380 hn        1 MOL      0.343100
     41 N4         -0.3040    2.3520    1.0550 n         1 MOL      0.000649
     42 C13        -1.1510    1.3840    0.2760 c3        1 MOL     -0.454771
     43 C14        -1.6330    0.1240    1.1460 c         1 MOL      0.399288
     44 O6         -0.9900   -0.9020    1.1090 o         1 MOL     -0.527683
     45 C15        -0.3850    0.9640   -1.0590 c3        1 MOL     -0.232692
     46 C16        -0.3970    2.0880   -2.0930 c         1 MOL      0.544709
     47 O7          0.3130    1.8970   -3.0680 o         1 MOL     -0.617446
     48 O8         -1.0320    3.2090   -2.0140 o         1 MOL     -0.617446
     49 H21        -0.5330    3.2830    0.7350 hn        1 MOL      0.052823
     50 H22        -2.0710    1.9140    0.0390 h1        1 MOL      0.155790
     51 H23        -0.9270    0.1020   -1.4480 hc        1 MOL      0.160290
     52 H24         0.6360    0.6900   -0.8080 hc        1 MOL      0.160290
     53 N5         -2.6740    0.2010    1.9650 n         1 MOL     -0.050062
     54 C17        -3.7170    1.1630    1.9500 c3        1 MOL     -0.357124
     55 C18        -4.8160    0.7190    2.9880 c         1 MOL      0.612363
     56 O9         -4.6860   -0.3120    3.6480 o         1 MOL     -0.550660
     57 H25        -2.7380   -0.6770    2.4510 hn        1 MOL      0.209061
     58 H26        -4.1690    1.1320    0.9550 h1        1 MOL      0.139339
     59 H27        -3.3700    2.1820    2.1350 h1        1 MOL      0.139339
     60 N6         -6.0020    1.4030    3.1420 n         1 MOL     -0.507652
     61 C19        -6.5320    2.4080    2.2130 c3        1 MOL      0.080833
     62 C20        -7.0250    1.7920    0.9200 c         1 MOL      0.582578
     63 O10        -7.5390    0.6880    0.9120 o         1 MOL     -0.474372
     64 C21        -7.7140    3.2410    2.8530 c3        1 MOL     -0.158622
     65 C22        -8.9240    2.4520    3.4090 c         1 MOL      0.724291
     66 O11        -9.9250    3.1200    3.6140 o         1 MOL     -0.669076
     67 O12        -8.8450    1.2120    3.7520 o         1 MOL     -0.669076
     68 H28        -6.6240    0.8090    3.6790 hn        1 MOL      0.315811
     69 H29        -5.8630    3.2360    1.9560 h1        1 MOL     -0.000162
     70 H30        -8.0970    3.8520    2.0280 hc        1 MOL      0.025115
     71 H31        -7.2810    3.8650    3.6450 hc        1 MOL      0.025115
     72 N7         -6.7880    2.4380   -0.2620 n         1 MOL     -0.343429
     73 C23        -7.5370    2.0360   -1.4710 c3        1 MOL     -0.047250
     74 C24        -7.2410    0.5760   -1.9990 c         1 MOL      0.449973
     75 O13        -8.1390   -0.1360   -2.4750 o         1 MOL     -0.498724
     76 H32        -6.3760    3.3710   -0.2980 hn        1 MOL      0.174085
     77 H33        -7.3780    2.6850   -2.3310 h1        1 MOL      0.076547
     78 H34        -8.6190    2.0830   -1.3420 h1        1 MOL      0.076547
     79 N8         -5.9300    0.1250   -1.9010 n         1 MOL     -0.321654
     80 C25        -5.4500   -1.2170   -2.2480 c3        1 MOL     -0.015380
     81 C26        -4.3180   -1.6650   -1.3220 c         1 MOL      0.319982
     82 O14        -3.3970   -0.9310   -1.0270 o         1 MOL     -0.342364
     83 C27        -4.8390   -1.3620   -3.6230 c3        1 MOL      0.272125
     84 C28        -5.6820   -0.8450   -4.8010 c3        1 MOL     -0.232477
     85 O15        -4.6430   -2.7210   -3.8850 oh        1 MOL     -0.610522
     86 H35        -5.2530    0.7560   -1.4950 hn        1 MOL      0.161910
     87 H36        -6.3010   -1.9030   -2.1580 h1        1 MOL      0.134918
     88 H37        -3.8450   -0.9290   -3.5990 h1        1 MOL      0.004853
     89 H38        -4.1100   -2.7240   -4.6860 ho        1 MOL      0.395628
     90 H39        -5.6600    0.2410   -4.7690 hc        1 MOL      0.061942
     91 H40        -5.2550   -1.1040   -5.7680 hc        1 MOL      0.061942
     92 H41        -6.7260   -1.1500   -4.7730 hc        1 MOL      0.061942
     93 N9         -4.3720   -2.8570   -0.8280 n         1 MOL     -0.262332
     94 C29        -3.5220   -3.5160    0.2700 c3        1 MOL     -0.014853
     95 C30        -2.2560   -4.1510   -0.2200 c         1 MOL      0.447736
     96 O16        -1.5470   -4.9460    0.4270 o         1 MOL     -0.579523
     97 C31        -4.3590   -4.4400    1.1780 c3        1 MOL      0.166347
     98 C32        -5.3650   -5.3400    0.4030 c3        1 MOL     -0.131977
     99 C33        -5.1470   -3.5770    2.1390 c3        1 MOL     -0.172723
    100 C34        -4.5940   -6.3340   -0.4830 c3        1 MOL     -0.034294
    101 H42        -5.2240   -3.3100   -1.1420 hn        1 MOL      0.267979
    102 H43        -3.1590   -2.6940    0.8830 h1        1 MOL      0.099711
    103 H44        -3.6780   -4.9540    1.8450 hc        1 MOL      0.027570
    104 H45        -5.9690   -4.7840   -0.3060 hc        1 MOL      0.045473
    105 H46        -5.9090   -5.8590    1.1860 hc        1 MOL      0.045473
    106 H47        -5.7360   -4.2720    2.7400 hc        1 MOL      0.042410
    107 H48        -4.4950   -3.0320    2.8290 hc        1 MOL      0.042410
    108 H49        -5.8380   -2.9010    1.6270 hc        1 MOL      0.042410
    109 H50        -5.3100   -7.0040   -0.9600 hc        1 MOL      0.015463
    110 H51        -4.1000   -5.8730   -1.3390 hc        1 MOL      0.015463
    111 H52        -3.8740   -6.9180    0.0900 hc        1 MOL      0.015463
    112 N10        -1.7790   -3.7450   -1.4270 n         1 MOL     -0.181131
    113 C35        -0.7690   -4.3630   -2.2650 c3        1 MOL      0.072991
    114 C36         0.6440   -4.0450   -1.8290 c         1 MOL      0.210571
    115 O17         1.5700   -4.5360   -2.4400 o         1 MOL     -0.527900
    116 C37        -0.9080   -3.9260   -3.7130 c3        1 MOL      0.217520
    117 C38        -0.6920   -2.4600   -3.8910 c3        1 MOL     -0.060723
    118 O18        -2.1130   -4.3530   -4.2430 oh        1 MOL     -0.565992
    119 H53        -2.5240   -3.2620   -1.9090 hn        1 MOL      0.055760
    120 H54        -0.9420   -5.4410   -2.2920 h1        1 MOL      0.108815
    121 H55        -0.1510   -4.4750   -4.2840 h1        1 MOL      0.030684
    122 H56        -2.1320   -3.8060   -5.0300 ho        1 MOL      0.352782
    123 H57        -1.4720   -1.8190   -3.4780 hc        1 MOL      0.026109
    124 H58         0.2880   -2.0940   -3.5810 hc        1 MOL      0.026109
    125 H59        -0.7370   -2.1900   -4.9450 hc        1 MOL      0.026109
    126 N11         0.8760   -3.3350   -0.7730 n         1 MOL     -0.034400
    127 C39         2.1450   -2.8530   -0.2210 c3        1 MOL      0.083713
    128 C40         2.9040   -2.0580   -1.2710 c         1 MOL      0.297145
    129 O19         2.5710   -1.9630   -2.4230 o         1 MOL     -0.461875
    130 C41         2.9230   -4.0170    0.4400 c3        1 MOL      0.307073
    131 C42         2.0180   -4.8990    1.3610 c3        1 MOL     -0.414420
    132 O20         3.7990   -3.5070    1.4690 oh        1 MOL     -0.612013
    133 H60         0.0800   -2.8870   -0.3430 hn        1 MOL      0.089254
    134 H61         1.9100   -2.1590    0.5930 h1        1 MOL      0.065275
    135 H62         3.4600   -4.5800   -0.3250 h1        1 MOL      0.039763
    136 H63         4.6730   -3.8800    1.2950 ho        1 MOL      0.382476
    137 H64         2.5170   -5.5700    2.0640 hc        1 MOL      0.105208
    138 H65         1.1720   -4.3320    1.7500 hc        1 MOL      0.105208
    139 H66         1.5530   -5.6280    0.6990 hc        1 MOL      0.105208
    140 N12         4.1620   -1.6420   -0.9090 n         1 MOL      0.036969
    141 C43         5.1560   -1.0410   -1.9470 c3        1 MOL     -0.190109
    142 C44         5.4280    0.4710   -1.8820 c         1 MOL      0.632535
    143 O21         6.1090    1.0100   -2.7150 o         1 MOL     -0.609778
    144 C45         6.4660   -1.8300   -1.7320 c3        1 MOL      0.114682
    145 C46         6.2970   -3.3330   -2.0690 c3        1 MOL      0.194731
    146 C47         6.0070   -3.7580   -3.5080 c3        1 MOL     -0.271096
    147 C48         6.7300   -3.0890   -4.6620 c3        1 MOL      0.048477
    148 N13         8.1710   -3.4330   -4.8150 n4        1 MOL     -0.296652
    149 H67         4.4600   -1.8500    0.0380 hn        1 MOL      0.114945
    150 H68         4.7470   -1.2880   -2.9240 h1        1 MOL      0.082205
    151 H69         6.7160   -1.7580   -0.6720 hc        1 MOL     -0.017500
    152 H70         7.2630   -1.4240   -2.3610 hc        1 MOL     -0.017500
    153 H71         5.5100   -3.7590   -1.4440 hc        1 MOL     -0.064425
    154 H72         7.2200   -3.8070   -1.7240 hc        1 MOL     -0.064425
    155 H73         4.9520   -3.5140   -3.5870 hc        1 MOL      0.107452
    156 H74         6.0270   -4.8460   -3.6150 hc        1 MOL      0.107452
    157 H75         6.6900   -1.9980   -4.6540 hx        1 MOL      0.088593
    158 H76         6.2150   -3.4000   -5.5770 hx        1 MOL      0.088593
    159 H77         8.6460   -3.2870   -3.9390 hn        1 MOL      0.298957
    160 H78         8.3940   -4.3470   -5.1720 hn        1 MOL      0.298957
    161 H79         8.6520   -2.8900   -5.5280 hn        1 MOL      0.298957
    162 N14         4.6820    1.1250   -1.0340 n         1 MOL     -0.205164
    163 C49         4.5900    2.5970   -0.9790 c3        1 MOL     -0.124454
    164 C50         5.8880    3.2380   -0.5000 c         1 MOL      0.369969
    165 O22         6.4680    2.7930    0.5300 o         1 MOL     -0.470204
    166 C51         3.3500    3.0480   -0.1720 c3        1 MOL      0.232659
    167 C52         3.0870    4.5670   -0.0350 c3        1 MOL     -0.680900
    168 C53         2.6690    5.2420   -1.3430 c         1 MOL      0.774321
    169 O23         3.6100    5.6080   -2.1140 o         1 MOL     -0.697763
    170 O24         1.4920    5.5070   -1.5400 o         1 MOL     -0.697763
    171 H80         4.0900    0.5710   -0.4230 hn        1 MOL     -0.005166
    172 H81         4.4690    2.9180   -2.0090 h1        1 MOL      0.101554
    173 H82         3.4980    2.6780    0.8380 hc        1 MOL      0.066897
    174 H83         2.4800    2.5880   -0.6580 hc        1 MOL      0.066897
    175 H84         3.9240    4.9120    0.5700 hc        1 MOL      0.176636
    176 H85         2.3240    4.6970    0.7340 hc        1 MOL      0.176636
    177 N15         6.3530    4.3000   -1.1620 n         1 MOL     -0.267235
    178 C54         7.5860    5.0710   -0.8820 c3        1 MOL     -0.021251
    179 H86         8.1880    4.5390   -0.1460 h1        1 MOL      0.049055
    180 H87         8.1580    5.1900   -1.8020 h1        1 MOL      0.049055
    181 H88         7.3200    6.0540   -0.4910 h1        1 MOL      0.049055
    182 H89         5.8240    4.6400   -1.9480 hn        1 MOL      0.288304
    183 Ca1        -1.0250    5.7340   -2.2530 Ca        1 MOL      1.666681
    184 O25        -1.7890    4.9420   -4.5770 oh        1 MOL     -0.930967
    185 H90        -2.3010    5.2930   -5.3020 ho        1 MOL      0.453329
    186 H91        -1.8440    3.9980   -4.6790 ho        1 MOL      0.453329
    187 O26         0.1940    7.3750   -3.9330 oh        1 MOL     -0.930967
    188 H92         0.3380    8.2930   -4.1380 ho        1 MOL      0.453329
    189 H93         0.3770    6.9060   -4.7430 ho        1 MOL      0.453329
    190 O27        -3.6420    5.2680   -2.1070 oh        1 MOL     -0.930967
    191 H94        -4.3010    5.1610   -1.4200 ho        1 MOL      0.453329
    192 H95        -4.0560    5.8550   -2.7390 ho        1 MOL      0.453329
@<TRIPOS>BOND
     1    1    2 1   
     2    1    4 1   
     3    1    5 1   
     4    1    6 1   
     5    2    3 2   
     6    2    7 1   
     7    7    8 1   
     8    7   15 1   
     9    8    9 1   
    10    8   11 1   
    11    8   16 1   
    12    9   10 2   
    13    9   19 1   
    14   11   12 1   
    15   11   17 1   
    16   11   18 1   
    17   12   13 1   
    18   12   14 1   
    19   19   20 1   
    20   19   28 1   
    21   20   21 1   
    22   20   23 1   
    23   20   29 1   
    24   21   22 2   
    25   21   41 1   
    26   23   24 1   
    27   23   30 1   
    28   23   31 1   
    29   24   25 1   
    30   24   32 1   
    31   24   33 1   
    32   25   26 1   
    33   25   34 1   
    34   25   35 1   
    35   26   27 1   
    36   26   36 1   
    37   26   37 1   
    38   27   38 1   
    39   27   39 1   
    40   27   40 1   
    41   41   42 1   
    42   41   49 1   
    43   42   43 1   
    44   42   45 1   
    45   42   50 1   
    46   43   44 2   
    47   43   53 1   
    48   45   46 1   
    49   45   51 1   
    50   45   52 1   
    51   46   47 1   
    52   46   48 1   
    53   53   54 1   
    54   53   57 1   
    55   54   55 1   
    56   54   58 1   
    57   54   59 1   
    58   55   56 2   
    59   55   60 1   
    60   60   61 1   
    61   60   68 1   
    62   61   62 1   
    63   61   64 1   
    64   61   69 1   
    65   62   63 2   
    66   62   72 1   
    67   64   65 1   
    68   64   70 1   
    69   64   71 1   
    70   65   66 1   
    71   65   67 1   
    72   72   73 1   
    73   72   76 1   
    74   73   74 1   
    75   73   77 1   
    76   73   78 1   
    77   74   75 2   
    78   74   79 1   
    79   79   80 1   
    80   79   86 1   
    81   80   81 1   
    82   80   83 1   
    83   80   87 1   
    84   81   82 2   
    85   81   93 1   
    86   83   84 1   
    87   83   85 1   
    88   83   88 1   
    89   84   90 1   
    90   84   91 1   
    91   84   92 1   
    92   85   89 1   
    93   93   94 1   
    94   93  101 1   
    95   94   95 1   
    96   94   97 1   
    97   94  102 1   
    98   95   96 2   
    99   95  112 1   
   100   97   98 1   
   101   97   99 1   
   102   97  103 1   
   103   98  100 1   
   104   98  104 1   
   105   98  105 1   
   106   99  106 1   
   107   99  107 1   
   108   99  108 1   
   109  100  109 1   
   110  100  110 1   
   111  100  111 1   
   112  112  113 1   
   113  112  119 1   
   114  113  114 1   
   115  113  116 1   
   116  113  120 1   
   117  114  115 2   
   118  114  126 1   
   119  116  117 1   
   120  116  118 1   
   121  116  121 1   
   122  117  123 1   
   123  117  124 1   
   124  117  125 1   
   125  118  122 1   
   126  126  127 1   
   127  126  133 1   
   128  127  128 1   
   129  127  130 1   
   130  127  134 1   
   131  128  129 2   
   132  128  140 1   
   133  130  131 1   
   134  130  132 1   
   135  130  135 1   
   136  131  137 1   
   137  131  138 1   
   138  131  139 1   
   139  132  136 1   
   140  140  141 1   
   141  140  149 1   
   142  141  142 1   
   143  141  144 1   
   144  141  150 1   
   145  142  143 2   
   146  142  162 1   
   147  144  145 1   
   148  144  151 1   
   149  144  152 1   
   150  145  146 1   
   151  145  153 1   
   152  145  154 1   
   153  146  147 1   
   154  146  155 1   
   155  146  156 1   
   156  147  148 1   
   157  147  157 1   
   158  147  158 1   
   159  148  159 1   
   160  148  160 1   
   161  148  161 1   
   162  162  163 1   
   163  162  171 1   
   164  163  164 1   
   165  163  166 1   
   166  163  172 1   
   167  164  165 2   
   168  164  177 1   
   169  166  167 1   
   170  166  173 1   
   171  166  174 1   
   172  167  168 1   
   173  167  175 1   
   174  167  176 1   
   175  168  169 1   
   176  168  170 1   
   177  177  178 1   
   178  177  182 1   
   179  178  179 1   
   180  178  180 1   
   181  178  181 1   
   182  184  185 1   
   183  184  186 1   
   184  187  188 1   
   185  187  189 1   
   186  190  191 1   
   187  190  192 1   
@<TRIPOS>SUBSTRUCTURE
     1 MOL         1 TEMP              0 ****  ****    0 ROOT
