@<TRIPOS>MOLECULE
MOL
  192   187     1     0     0
SMALL
resp


@<TRIPOS>ATOM
      1 C1          9.3210    2.3630    0.7820 c3        1 MOL     -0.383989
      2 C2          8.3340    1.2640    0.3320 c         1 MOL      0.719509
      3 O1          7.4260    0.9620    1.1360 o         1 MOL     -0.666914
      4 H1          9.2210    3.2300    0.1290 hc        1 MOL      0.098737
      5 H2          9.0990    2.6540    1.8090 hc        1 MOL      0.098737
      6 H3         10.3410    1.9820    0.7250 hc        1 MOL      0.098737
      7 N1          8.5040    0.6810   -0.8610 n         1 MOL     -0.581616
      8 C3          7.4610   -0.2010   -1.4880 c3        1 MOL      0.180698
      9 C4          7.4860   -1.5630   -0.8190 c         1 MOL      0.328070
     10 O2          8.0160   -2.5270   -1.3330 o         1 MOL     -0.456227
     11 C5          7.7640   -0.1910   -2.9710 c3        1 MOL     -0.159347
     12 C6          9.1420   -0.6540   -3.4890 c         1 MOL      0.708249
     13 O3         10.1160   -0.5580   -2.7420 o         1 MOL     -0.691283
     14 O4          9.2280   -1.0280   -4.6540 o         1 MOL     -0.691283
     15 H4          9.3060    0.9330   -1.4100 hn        1 MOL      0.286135
     16 H5          6.4770    0.2380   -1.3590 h1        1 MOL      0.022333
     17 H6          7.6520    0.8360   -3.3090 hc        1 MOL      0.046204
     18 H7          6.9780   -0.7810   -3.4440 hc        1 MOL      0.046204
     19 N2          6.7530   -1.6510    0.3440 n         1 MOL     -0.009616
     20 C7          6.5240   -2.8770    1.0840 c3        1 MOL      0.070076
     21 C8          5.1060   -3.4350    0.9690 c         1 MOL      0.431270
     22 O5          4.9770   -4.7050    0.8970 o         1 MOL     -0.560450
     23 C9          7.1720   -2.7930    2.4760 c3        1 MOL      0.009546
     24 C10         8.6510   -2.3070    2.5030 c3        1 MOL     -0.105658
     25 C11         9.6980   -3.1300    1.7060 c3        1 MOL      0.101542
     26 C12        11.1640   -2.6960    1.7740 c3        1 MOL      0.058471
     27 N3         12.0440   -3.6550    1.1520 n4        1 MOL     -0.347774
     28 H8          6.4890   -0.7630    0.7570 hn        1 MOL      0.117756
     29 H9          7.1520   -3.6150    0.5810 h1        1 MOL      0.005977
     30 H10         7.1060   -3.7680    2.9620 hc        1 MOL      0.014746
     31 H11         6.5770   -2.1280    3.1070 hc        1 MOL      0.014746
     32 H12         8.9470   -2.3990    3.5430 hc        1 MOL      0.018152
     33 H13         8.6610   -1.2890    2.1220 hc        1 MOL      0.018152
     34 H14         9.4440   -3.2050    0.6530 hc        1 MOL     -0.001659
     35 H15         9.6630   -4.1440    2.1000 hc        1 MOL     -0.001659
     36 H16        11.3670   -2.4660    2.8140 hx        1 MOL      0.060410
     37 H17        11.2940   -1.7850    1.2020 hx        1 MOL      0.060410
     38 H18        11.8920   -4.6240    1.3930 hn        1 MOL      0.325805
     39 H19        11.8600   -3.6930    0.1510 hn        1 MOL      0.325805
     40 H20        13.0050   -3.3700    1.2910 hn        1 MOL      0.325805
     41 N4          3.9650   -2.7860    0.9900 n         1 MOL     -0.491215
     42 C13         3.8310   -1.3640    1.3490 c3        1 MOL      0.181643
     43 C14         3.8830   -0.4440    0.1140 c         1 MOL      0.499158
     44 O6          3.9050   -0.9300   -1.0070 o         1 MOL     -0.537259
     45 C15         2.5590   -1.1670    2.0310 c3        1 MOL     -0.131575
     46 C16         1.3710   -1.8950    1.3990 c         1 MOL      0.695512
     47 O7          0.7450   -1.2850    0.5020 o         1 MOL     -0.706963
     48 O8          1.2780   -3.1530    1.6120 o         1 MOL     -0.706963
     49 H21         3.1400   -3.3530    0.9270 hn        1 MOL      0.392920
     50 H22         4.6250   -1.1140    2.0570 h1        1 MOL      0.029428
     51 H23         2.3260   -0.1060    2.1300 hc        1 MOL     -0.012372
     52 H24         2.6640   -1.5550    3.0370 hc        1 MOL     -0.012372
     53 N5          4.0510    0.8620    0.3470 n         1 MOL     -0.262010
     54 C17         4.0500    1.8880   -0.7370 c3        1 MOL     -0.142144
     55 C18         2.6610    2.2560   -1.1670 c         1 MOL      0.712236
     56 O9          1.6480    1.6310   -0.7800 o         1 MOL     -0.731315
     57 H25         4.1890    1.1510    1.3090 hn        1 MOL      0.232073
     58 H26         4.5830    1.4160   -1.5630 h1        1 MOL      0.091862
     59 H27         4.5500    2.8210   -0.4700 h1        1 MOL      0.091862
     60 N6          2.6190    3.3430   -1.9320 n         1 MOL     -0.482116
     61 C19         1.3960    4.0510   -2.4040 c3        1 MOL      0.159035
     62 C20         1.6690    5.5690   -2.4850 c         1 MOL      0.410972
     63 O10         2.7960    6.0490   -2.3490 o         1 MOL     -0.517854
     64 C21         0.9710    3.5550   -3.7970 c3        1 MOL     -0.180286
     65 C22         0.6500    2.0580   -3.8370 c         1 MOL      0.658569
     66 O11        -0.3630    1.5610   -3.2890 o         1 MOL     -0.674417
     67 O12         1.5780    1.4560   -4.3810 o         1 MOL     -0.674417
     68 H28         3.4560    3.8880   -2.0620 hn        1 MOL      0.280913
     69 H29         0.5630    3.8910   -1.7210 h1        1 MOL      0.144556
     70 H30         1.8000    3.6990   -4.4950 hc        1 MOL      0.055396
     71 H31         0.0860    4.1130   -4.1080 hc        1 MOL      0.055396
     72 N7          0.6840    6.4750   -2.7290 n         1 MOL     -0.379787
     73 C23        -0.7500    6.3690   -2.6740 c3        1 MOL     -0.191059
     74 C24        -1.4200    5.9600   -1.4040 c         1 MOL      0.743589
     75 O13        -1.0670    6.4460   -0.3300 o         1 MOL     -0.555535
     76 H32         0.9960    7.4400   -2.7830 hn        1 MOL      0.320389
     77 H33        -1.0180    5.7540   -3.5350 h1        1 MOL      0.080619
     78 H34        -1.0600    7.4000   -2.8240 h1        1 MOL      0.080619
     79 N8         -2.3700    5.0710   -1.5350 n         1 MOL     -0.676269
     80 C25        -3.0370    4.4570   -0.3210 c3        1 MOL     -0.019630
     81 C26        -2.0870    3.5130    0.3460 c         1 MOL      0.800940
     82 O14        -1.3640    2.6730   -0.3340 o         1 MOL     -0.856295
     83 C27        -4.2820    3.6620   -0.7370 c3        1 MOL      0.665820
     84 C28        -5.4460    4.5530   -1.3720 c3        1 MOL     -0.401561
     85 O15        -4.9050    2.9850    0.3430 oh        1 MOL     -0.691710
     86 H35        -2.5930    4.5990   -2.4090 hn        1 MOL      0.342029
     87 H36        -3.3780    5.1120    0.4770 h1        1 MOL      0.063441
     88 H37        -3.9740    2.9540   -1.5020 h1        1 MOL     -0.101674
     89 H38        -5.4160    2.3210   -0.1400 ho        1 MOL      0.384066
     90 H39        -6.0230    3.9020   -2.0380 hc        1 MOL      0.087366
     91 H40        -6.0130    4.9960   -0.5530 hc        1 MOL      0.087366
     92 H41        -4.9900    5.3050   -2.0250 hc        1 MOL      0.087366
     93 N9         -1.8570    3.7120    1.6380 n         1 MOL     -0.536949
     94 C29        -1.1390    2.8480    2.6440 c3        1 MOL      0.054543
     95 C30        -1.5970    1.3980    2.6480 c         1 MOL      0.564831
     96 O16        -1.5360    0.6580    1.6260 o         1 MOL     -0.541048
     97 C31         0.4130    3.0140    2.5460 c3        1 MOL      0.106743
     98 C32         0.6810    4.5360    2.5290 c3        1 MOL      0.072800
     99 C33         1.1120    2.2930    3.6880 c3        1 MOL     -0.544455
    100 C34         2.1970    4.7510    2.2750 c3        1 MOL     -0.255491
    101 H42        -2.1270    4.6210    1.9880 hn        1 MOL      0.288116
    102 H43        -1.4630    3.2850    3.5930 h1        1 MOL      0.035615
    103 H44         0.7780    2.6170    1.5970 hc        1 MOL      0.106462
    104 H45         0.4410    5.0870    3.4420 hc        1 MOL      0.013520
    105 H46         0.1770    5.0660    1.7150 hc        1 MOL      0.013520
    106 H47         0.7350    2.5600    4.6750 hc        1 MOL      0.141657
    107 H48         0.8880    1.2290    3.5950 hc        1 MOL      0.141657
    108 H49         2.1890    2.4680    3.7210 hc        1 MOL      0.141657
    109 H50         2.7720    4.5660    3.1840 hc        1 MOL      0.064094
    110 H51         2.5050    4.1200    1.4370 hc        1 MOL      0.064094
    111 H52         2.4390    5.7960    2.0790 hc        1 MOL      0.064094
    112 N10        -1.9980    0.9600    3.8390 n         1 MOL     -0.653476
    113 C35        -2.1630   -0.4850    4.1330 c3        1 MOL     -0.052482
    114 C36        -3.5790   -0.9410    3.9720 c         1 MOL      0.389169
    115 O17        -3.8780   -2.0990    4.3530 o         1 MOL     -0.517932
    116 C37        -1.5940   -0.8130    5.5540 c3        1 MOL      0.365163
    117 C38        -2.5040   -0.1820    6.6370 c3        1 MOL     -0.294224
    118 O18        -0.3220   -0.1950    5.7560 oh        1 MOL     -0.598921
    119 H53        -1.9070    1.5540    4.6530 hn        1 MOL      0.387507
    120 H54        -1.4780   -1.0350    3.4890 h1        1 MOL      0.136315
    121 H55        -1.5740   -1.8980    5.6440 h1        1 MOL      0.029581
    122 H56         0.3850   -0.8280    5.5790 ho        1 MOL      0.388700
    123 H57        -2.7070    0.8510    6.3540 hc        1 MOL      0.081976
    124 H58        -3.3760   -0.8110    6.7620 hc        1 MOL      0.081976
    125 H59        -2.0860   -0.1290    7.6380 hc        1 MOL      0.081976
    126 N11        -4.4760   -0.1010    3.4360 n         1 MOL     -0.178785
    127 C39        -5.8720   -0.4400    3.1940 c3        1 MOL      0.146843
    128 C40        -6.1690   -0.6640    1.7010 c         1 MOL      0.415868
    129 O19        -5.7040    0.0970    0.8260 o         1 MOL     -0.455197
    130 C41        -6.8690    0.5610    3.8140 c3        1 MOL      0.288729
    131 C42        -6.5650    1.0040    5.2720 c3        1 MOL     -0.243901
    132 O20        -7.1010    1.7820    3.1320 oh        1 MOL     -0.611417
    133 H60        -4.1480    0.7920    3.0940 hn        1 MOL      0.253674
    134 H61        -6.0740   -1.3510    3.7400 h1        1 MOL      0.010647
    135 H62        -7.8420    0.0960    3.9950 h1        1 MOL     -0.020928
    136 H63        -7.8630    2.2180    3.5130 ho        1 MOL      0.401734
    137 H64        -5.6900    1.6470    5.3550 hc        1 MOL      0.054695
    138 H65        -7.5180    1.3980    5.6190 hc        1 MOL      0.054695
    139 H66        -6.3110    0.1330    5.8710 hc        1 MOL      0.054695
    140 N12        -6.9310   -1.7170    1.5230 n         1 MOL     -0.552396
    141 C43        -7.2940   -2.3420    0.2270 c3        1 MOL      0.162111
    142 C44        -6.0780   -2.3980   -0.7100 c         1 MOL      0.521967
    143 O21        -6.0680   -1.7140   -1.7740 o         1 MOL     -0.536047
    144 C45        -8.4130   -1.4940   -0.4310 c3        1 MOL     -0.259651
    145 C46        -9.1360   -2.2530   -1.5890 c3        1 MOL      0.002934
    146 C47        -9.7700   -1.2080   -2.4900 c3        1 MOL      0.031589
    147 C48       -10.3820   -1.8870   -3.7130 c3        1 MOL     -0.003716
    148 N13       -11.2950   -0.9280   -4.3640 n4        1 MOL     -0.125901
    149 H67        -7.2730   -2.2160    2.3360 hn        1 MOL      0.324776
    150 H68        -7.5110   -3.3920    0.4090 h1        1 MOL      0.053039
    151 H69        -7.9940   -0.6150   -0.9140 hc        1 MOL      0.097396
    152 H70        -9.2630   -1.1840    0.1770 hc        1 MOL      0.097396
    153 H71        -9.9260   -2.8820   -1.1980 hc        1 MOL      0.006753
    154 H72        -8.3760   -2.8490   -2.0950 hc        1 MOL      0.006753
    155 H73        -9.0380   -0.4890   -2.8550 hc        1 MOL      0.031125
    156 H74       -10.4930   -0.6670   -1.8830 hc        1 MOL      0.031125
    157 H75       -10.8710   -2.7870   -3.3340 hx        1 MOL      0.085717
    158 H76        -9.7050   -2.2530   -4.4790 hx        1 MOL      0.085717
    159 H77       -12.2470   -0.9030   -4.0040 hn        1 MOL      0.188106
    160 H78       -10.9390    0.0040   -4.5050 hn        1 MOL      0.188106
    161 H79       -11.6000   -1.3900   -5.2110 hn        1 MOL      0.188106
    162 N14        -5.1170   -3.2310   -0.3860 n         1 MOL     -0.564715
    163 C49        -3.8800   -3.3970   -1.1310 c3        1 MOL      0.505280
    164 C50        -2.6460   -3.0990   -0.2650 c         1 MOL      0.391651
    165 O22        -2.0850   -2.0260   -0.4260 o         1 MOL     -0.568136
    166 C51        -3.8210   -4.7660   -1.8630 c3        1 MOL     -0.071187
    167 C52        -4.4500   -4.4960   -3.2400 c3        1 MOL     -0.379040
    168 C53        -4.1810   -5.6960   -4.1260 c         1 MOL      0.797450
    169 O23        -3.0430   -5.9260   -4.5070 o         1 MOL     -0.667860
    170 O24        -5.0790   -6.4430   -4.4940 o         1 MOL     -0.667860
    171 H80        -5.2960   -3.8300    0.4150 hn        1 MOL      0.295532
    172 H81        -3.8210   -2.6270   -1.9140 h1        1 MOL      0.020916
    173 H82        -4.4090   -5.4740   -1.2710 hc        1 MOL      0.043721
    174 H83        -2.8260   -5.1840   -2.0370 hc        1 MOL      0.043721
    175 H84        -4.0320   -3.5940   -3.6870 hc        1 MOL      0.075056
    176 H85        -5.5200   -4.3170   -3.1020 hc        1 MOL      0.075056
    177 N15        -2.1870   -3.9800    0.6330 n         1 MOL     -0.384551
    178 C54        -2.8780   -5.2290    1.0510 c3        1 MOL      0.044247
    179 H86        -3.5850   -5.0020    1.8490 h1        1 MOL      0.022115
    180 H87        -3.4140   -5.6500    0.2000 h1        1 MOL      0.022115
    181 H88        -2.1420   -5.9480    1.4100 h1        1 MOL      0.022115
    182 H89        -1.3610   -3.7280    1.1480 hn        1 MOL      0.328910
    183 Ca1        -0.6860    0.2140   -1.0190 Ca        1 MOL      1.831950
    184 O25        -1.4260   -1.8350   -3.1500 oh        1 MOL     -0.856907
    185 H90        -1.4500   -1.3920   -3.9980 ho        1 MOL      0.417323
    186 H91        -0.9900   -2.6760   -3.3420 ho        1 MOL      0.417323
    187 O26        -3.2060    0.4310   -1.6480 oh        1 MOL     -0.856907
    188 H92        -3.4030    0.3560   -2.5840 ho        1 MOL      0.417323
    189 H93        -4.0630    0.4570   -1.2220 ho        1 MOL      0.417323
    190 O27         1.5140   -0.7340   -2.5190 oh        1 MOL     -0.856907
    191 H94         1.8440   -0.0830   -3.1270 ho        1 MOL      0.417323
    192 H95         2.2650   -0.9610   -1.9730 ho        1 MOL      0.417323
@<TRIPOS>BOND
     1    1    2 1   
     2    1    4 1   
     3    1    5 1   
     4    1    6 1   
     5    2    3 2   
     6    2    7 1   
     7    7    8 1   
     8    7   15 1   
     9    8    9 1   
    10    8   11 1   
    11    8   16 1   
    12    9   10 2   
    13    9   19 1   
    14   11   12 1   
    15   11   17 1   
    16   11   18 1   
    17   12   13 1   
    18   12   14 1   
    19   19   20 1   
    20   19   28 1   
    21   20   21 1   
    22   20   23 1   
    23   20   29 1   
    24   21   22 2   
    25   21   41 1   
    26   23   24 1   
    27   23   30 1   
    28   23   31 1   
    29   24   25 1   
    30   24   32 1   
    31   24   33 1   
    32   25   26 1   
    33   25   34 1   
    34   25   35 1   
    35   26   27 1   
    36   26   36 1   
    37   26   37 1   
    38   27   38 1   
    39   27   39 1   
    40   27   40 1   
    41   41   42 1   
    42   41   49 1   
    43   42   43 1   
    44   42   45 1   
    45   42   50 1   
    46   43   44 2   
    47   43   53 1   
    48   45   46 1   
    49   45   51 1   
    50   45   52 1   
    51   46   47 1   
    52   46   48 1   
    53   53   54 1   
    54   53   57 1   
    55   54   55 1   
    56   54   58 1   
    57   54   59 1   
    58   55   56 2   
    59   55   60 1   
    60   60   61 1   
    61   60   68 1   
    62   61   62 1   
    63   61   64 1   
    64   61   69 1   
    65   62   63 2   
    66   62   72 1   
    67   64   65 1   
    68   64   70 1   
    69   64   71 1   
    70   65   66 1   
    71   65   67 1   
    72   72   73 1   
    73   72   76 1   
    74   73   74 1   
    75   73   77 1   
    76   73   78 1   
    77   74   75 2   
    78   74   79 1   
    79   79   80 1   
    80   79   86 1   
    81   80   81 1   
    82   80   83 1   
    83   80   87 1   
    84   81   82 2   
    85   81   93 1   
    86   83   84 1   
    87   83   85 1   
    88   83   88 1   
    89   84   90 1   
    90   84   91 1   
    91   84   92 1   
    92   85   89 1   
    93   93   94 1   
    94   93  101 1   
    95   94   95 1   
    96   94   97 1   
    97   94  102 1   
    98   95   96 2   
    99   95  112 1   
   100   97   98 1   
   101   97   99 1   
   102   97  103 1   
   103   98  100 1   
   104   98  104 1   
   105   98  105 1   
   106   99  106 1   
   107   99  107 1   
   108   99  108 1   
   109  100  109 1   
   110  100  110 1   
   111  100  111 1   
   112  112  113 1   
   113  112  119 1   
   114  113  114 1   
   115  113  116 1   
   116  113  120 1   
   117  114  115 2   
   118  114  126 1   
   119  116  117 1   
   120  116  118 1   
   121  116  121 1   
   122  117  123 1   
   123  117  124 1   
   124  117  125 1   
   125  118  122 1   
   126  126  127 1   
   127  126  133 1   
   128  127  128 1   
   129  127  130 1   
   130  127  134 1   
   131  128  129 2   
   132  128  140 1   
   133  130  131 1   
   134  130  132 1   
   135  130  135 1   
   136  131  137 1   
   137  131  138 1   
   138  131  139 1   
   139  132  136 1   
   140  140  141 1   
   141  140  149 1   
   142  141  142 1   
   143  141  144 1   
   144  141  150 1   
   145  142  143 2   
   146  142  162 1   
   147  144  145 1   
   148  144  151 1   
   149  144  152 1   
   150  145  146 1   
   151  145  153 1   
   152  145  154 1   
   153  146  147 1   
   154  146  155 1   
   155  146  156 1   
   156  147  148 1   
   157  147  157 1   
   158  147  158 1   
   159  148  159 1   
   160  148  160 1   
   161  148  161 1   
   162  162  163 1   
   163  162  171 1   
   164  163  164 1   
   165  163  166 1   
   166  163  172 1   
   167  164  165 2   
   168  164  177 1   
   169  166  167 1   
   170  166  173 1   
   171  166  174 1   
   172  167  168 1   
   173  167  175 1   
   174  167  176 1   
   175  168  169 1   
   176  168  170 1   
   177  177  178 1   
   178  177  182 1   
   179  178  179 1   
   180  178  180 1   
   181  178  181 1   
   182  184  185 1   
   183  184  186 1   
   184  187  188 1   
   185  187  189 1   
   186  190  191 1   
   187  190  192 1   
@<TRIPOS>SUBSTRUCTURE
     1 MOL         1 TEMP              0 ****  ****    0 ROOT
