@<TRIPOS>MOLECULE
MOL
  195   189     1     0     0
SMALL
resp


@<TRIPOS>ATOM
      1 C1         -5.7310   -2.2010    2.8130 c3        1 MOL     -0.298849
      2 C2         -4.6590   -2.5730    1.6690 c         1 MOL      0.581096
      3 O1         -3.7880   -1.8070    1.2930 o         1 MOL     -0.479612
      4 H1         -6.4200   -3.0350    2.9490 hc        1 MOL      0.050191
      5 H2         -5.2110   -2.0030    3.7500 hc        1 MOL      0.050191
      6 H3         -6.2900   -1.3140    2.5130 hc        1 MOL      0.050191
      7 N1         -4.8070   -3.7610    1.1470 n         1 MOL     -0.466595
      8 C3         -4.2010   -4.3620   -0.0330 c3        1 MOL      0.004444
      9 C4         -2.6270   -4.1930   -0.1560 c         1 MOL      0.795263
     10 O2         -2.0710   -3.8070   -1.1540 o         1 MOL     -0.561687
     11 C5         -5.0330   -3.9850   -1.2460 c3        1 MOL     -0.649202
     12 C6         -6.4750   -4.1370   -1.1230 c         1 MOL      1.051778
     13 O3         -6.9030   -5.2940   -1.1870 o         1 MOL     -0.786146
     14 O4         -7.2420   -3.1550   -0.9720 o         1 MOL     -0.786146
     15 H4         -5.5770   -4.2630    1.5410 hn        1 MOL      0.270198
     16 H5         -4.3900   -5.4190    0.1350 h1        1 MOL      0.092519
     17 H6         -4.6860   -4.7120   -1.9850 hc        1 MOL      0.188993
     18 H7         -4.8020   -2.9420   -1.4690 hc        1 MOL      0.188993
     19 N2         -1.9000   -4.2440    0.9650 n         1 MOL     -0.746217
     20 C7         -0.4530   -3.9250    1.1240 c3        1 MOL     -0.321890
     21 C8          0.3320   -5.0770    0.3640 c         1 MOL      0.742169
     22 O5         -0.1860   -6.1620    0.1580 o         1 MOL     -0.570408
     23 C9          0.0390   -3.6900    2.5730 c3        1 MOL      0.654236
     24 C10        -0.0400   -4.9390    3.4740 c3        1 MOL     -0.091493
     25 C11        -0.7570   -2.4860    3.1370 c3        1 MOL     -0.392354
     26 C12         0.7470   -4.8270    4.8370 c3        1 MOL     -0.219114
     27 H8         -2.4510   -4.4530    1.7820 hn        1 MOL      0.328318
     28 H9         -0.2620   -3.0240    0.5460 h1        1 MOL      0.234652
     29 H10         1.0820   -3.3550    2.5840 hc        1 MOL     -0.051182
     30 H11         0.4610   -5.7100    2.8900 hc        1 MOL      0.030271
     31 H12        -1.0880   -5.1370    3.7150 hc        1 MOL      0.030271
     32 H13        -0.6700   -1.6170    2.4830 hc        1 MOL      0.064067
     33 H14        -1.7950   -2.7940    3.1940 hc        1 MOL      0.064067
     34 H15        -0.4320   -2.2190    4.1360 hc        1 MOL      0.064067
     35 H16         0.5160   -3.9110    5.3710 hc        1 MOL      0.043527
     36 H17         0.4870   -5.7560    5.3590 hc        1 MOL      0.043527
     37 H18         1.8260   -4.8030    4.6700 hc        1 MOL      0.043527
     38 N3          1.6120   -4.8580   -0.1220 n         1 MOL     -0.590127
     39 C13         2.5460   -3.7460    0.1190 c3        1 MOL     -0.180119
     40 C14         3.2040   -3.1760   -1.1540 c         1 MOL      0.604765
     41 O6          3.7340   -2.0390   -1.0660 o         1 MOL     -0.493596
     42 C15         3.6590   -4.1700    1.1370 c3        1 MOL     -0.103001
     43 C16         4.4080   -5.4290    0.9250 c         1 MOL      0.662832
     44 O7          4.7100   -5.8010   -0.2880 o         1 MOL     -0.678946
     45 O8          4.9320   -6.0050    1.9080 o         1 MOL     -0.678946
     46 H19         2.0100   -5.5660   -0.7360 hn        1 MOL      0.287830
     47 H20         1.9770   -2.9340    0.5630 h1        1 MOL      0.022118
     48 H21         3.1450   -4.2750    2.0940 hc        1 MOL      0.069431
     49 H22         4.3540   -3.3320    1.2900 hc        1 MOL      0.069431
     50 N4          3.1150   -3.8430   -2.3120 n         1 MOL     -0.314767
     51 C17         3.5500   -3.4290   -3.6280 c3        1 MOL     -0.314917
     52 C18         5.0520   -3.1510   -3.8090 c         1 MOL      0.517049
     53 O9          5.9110   -4.0380   -4.0610 o         1 MOL     -0.539074
     54 H23         2.8440   -4.8180   -2.3110 hn        1 MOL      0.318226
     55 H24         2.9100   -2.5560   -3.7910 h1        1 MOL      0.130428
     56 H25         3.3610   -4.2670   -4.3000 h1        1 MOL      0.130428
     57 N5          5.4480   -1.8870   -3.6880 n         1 MOL     -0.361947
     58 C19         6.7980   -1.3730   -3.7570 c3        1 MOL      0.022573
     59 C20         7.6400   -1.7190   -2.4900 c         1 MOL      0.443305
     60 O10         8.8490   -1.8290   -2.5750 o         1 MOL     -0.607251
     61 C21         6.8200    0.1390   -4.1420 c3        1 MOL     -0.266901
     62 C22         5.8100    0.9720   -3.3880 c         1 MOL      0.721999
     63 O11         5.7080    0.7730   -2.1130 o         1 MOL     -0.690463
     64 O12         5.0200    1.6520   -4.0790 o         1 MOL     -0.690463
     65 H26         4.7430   -1.2110   -3.4190 hn        1 MOL      0.302938
     66 H27         7.3110   -1.8110   -4.6160 h1        1 MOL      0.072020
     67 H28         6.4570    0.2710   -5.1590 hc        1 MOL      0.051427
     68 H29         7.7560    0.6780   -3.9640 hc        1 MOL      0.051427
     69 N6          7.0300   -1.8210   -1.3790 n         1 MOL     -0.012771
     70 C23         7.6140   -1.8850   -0.0370 c3        1 MOL     -0.290513
     71 C24         8.0280   -0.5550    0.5990 c         1 MOL      0.542909
     72 O13         8.4570   -0.4990    1.7750 o         1 MOL     -0.606301
     73 H30         6.0210   -1.8020   -1.3790 hn        1 MOL      0.167629
     74 H31         8.5180   -2.5010   -0.0550 h1        1 MOL      0.128878
     75 H32         6.8330   -2.2710    0.6140 h1        1 MOL      0.128878
     76 N7          7.7860    0.5920   -0.1000 n         1 MOL     -0.014502
     77 C25         8.1480    1.9780    0.2740 c3        1 MOL     -0.084250
     78 C26         7.5370    2.5490    1.5670 c         1 MOL      0.610108
     79 O14         8.0520    3.5510    2.0000 o         1 MOL     -0.540501
     80 C27         9.6190    2.2520    0.0110 c3        1 MOL      0.066800
     81 C28        10.2300    1.5110   -1.2160 c3        1 MOL     -0.034211
     82 C29        11.6160    2.0190   -1.5140 c         1 MOL      0.578529
     83 N8         12.2680    1.5210   -2.6000 n         1 MOL     -0.812769
     84 O15        12.2030    2.8490   -0.7640 o         1 MOL     -0.567411
     85 H33         7.2930    0.5050   -0.9830 hn        1 MOL      0.016190
     86 H34         7.7300    2.5310   -0.5670 h1        1 MOL      0.091788
     87 H35        10.1710    1.9860    0.9050 hc        1 MOL     -0.004406
     88 H36         9.7560    3.3260   -0.1340 hc        1 MOL     -0.004406
     89 H37         9.6240    1.5680   -2.1240 hc        1 MOL      0.036151
     90 H38        10.3970    0.4600   -1.0160 hc        1 MOL      0.036151
     91 H39        11.8710    0.7550   -3.1320 hn        1 MOL      0.359068
     92 H40        13.2230    1.8460   -2.6920 hn        1 MOL      0.359068
     93 N9          6.4170    2.0300    2.0780 n         1 MOL     -0.580398
     94 C30         5.6810    2.4900    3.2800 c3        1 MOL      0.068035
     95 C31         4.1780    2.5720    3.2170 c         1 MOL      0.507449
     96 O16         3.6350    3.1740    4.1320 o         1 MOL     -0.578788
     97 C32         6.1270    1.6760    4.4760 c3        1 MOL      0.126244
     98 C33         5.5160    0.2960    4.4880 c3        1 MOL     -0.254601
     99 C34         7.6120    1.4880    4.5390 c3        1 MOL     -0.254601
    100 H41         5.9540    1.2910    1.5680 hn        1 MOL      0.281791
    101 H42         6.0930    3.4890    3.4580 h1        1 MOL      0.085287
    102 H43         5.7040    2.1510    5.3610 hc        1 MOL     -0.011542
    103 H44         5.8450   -0.3720    5.2870 hc        1 MOL      0.067631
    104 H45         4.4270    0.3150    4.4630 hc        1 MOL      0.067631
    105 H46         5.6920   -0.2210    3.5420 hc        1 MOL      0.067631
    106 H47         7.9740    0.9810    5.4370 hc        1 MOL      0.067631
    107 H48         8.0350    0.9810    3.6810 hc        1 MOL      0.067631
    108 H49         8.0430    2.4860    4.6280 hc        1 MOL      0.067631
    109 N10         3.5950    2.0290    2.1710 n         1 MOL     -0.362709
    110 C35         2.2030    1.8760    2.0080 c3        1 MOL      0.168774
    111 C36         1.8950    2.7720    0.7200 c         1 MOL      0.553519
    112 O17         2.7940    3.2560    0.0100 o         1 MOL     -0.525073
    113 C37         1.8630    0.4250    1.7410 c3        1 MOL      0.004757
    114 C38         2.1560   -0.5650    2.8840 c         1 MOL      0.401745
    115 N11         1.6270   -0.3180    4.0880 n         1 MOL     -0.736627
    116 O18         2.8940   -1.5320    2.6820 o         1 MOL     -0.452741
    117 H50         4.2190    1.5610    1.5250 hn        1 MOL      0.250868
    118 H51         1.6490    2.3190    2.8240 h1        1 MOL      0.011764
    119 H52         2.3890    0.0200    0.8770 hc        1 MOL      0.050089
    120 H53         0.7900    0.4230    1.5700 hc        1 MOL      0.050089
    121 H54         0.9970    0.4400    4.3020 hn        1 MOL      0.360764
    122 H55         1.8300   -0.9880    4.8080 hn        1 MOL      0.360764
    123 N12         0.6130    2.9910    0.5180 n         1 MOL     -0.528209
    124 C39         0.0310    3.8420   -0.5140 c3        1 MOL      0.132098
    125 C40        -1.3860    4.2030   -0.1310 c         1 MOL      0.612564
    126 O19        -1.9640    3.6740    0.7790 o         1 MOL     -0.583620
    127 C41         0.0200    3.2410   -1.9470 c3        1 MOL     -0.205355
    128 C42        -0.7420    1.9110   -1.9770 ca        1 MOL      0.014388
    129 C43        -0.2640    0.6480   -1.4430 ca        1 MOL     -0.096066
    130 C44        -2.0270    1.8070   -2.6430 ca        1 MOL     -0.096066
    131 C45        -1.0400   -0.5390   -1.4600 ca        1 MOL     -0.353492
    132 C46        -2.7890    0.6200   -2.6630 ca        1 MOL     -0.353492
    133 C47        -2.3480   -0.5710   -2.1340 ca        1 MOL      0.470974
    134 O20        -3.1300   -1.6720   -2.1820 oh        1 MOL     -0.584421
    135 H56        -0.0400    2.7060    1.2410 hn        1 MOL      0.273806
    136 H57         0.6090    4.7500   -0.6460 h1        1 MOL      0.074034
    137 H58         1.0580    3.0590   -2.2090 hc        1 MOL      0.109431
    138 H59        -0.4260    3.9740   -2.6210 hc        1 MOL      0.109431
    139 H60         0.6850    0.5920   -0.9290 ha        1 MOL      0.118215
    140 H61        -2.4550    2.6480   -3.1650 ha        1 MOL      0.118215
    141 H62        -0.7310   -1.5070   -1.0800 ha        1 MOL      0.150731
    142 H63        -3.7640    0.5950   -3.1300 ha        1 MOL      0.150731
    143 H64        -2.7690   -2.3790   -1.6500 ho        1 MOL      0.429521
    144 N13        -2.0160    5.1390   -0.8510 n         1 MOL     -0.698469
    145 C48        -3.3730    5.5950   -0.7040 c3        1 MOL      0.555438
    146 C49        -4.3270    5.0620   -1.8120 c         1 MOL      0.542825
    147 O21        -4.2040    5.3730   -2.9720 o         1 MOL     -0.574795
    148 C50        -3.2470    7.1010   -0.8530 c3        1 MOL      0.085744
    149 C51        -4.3820    7.8880   -0.1960 c3        1 MOL     -0.291495
    150 C52        -4.1880    9.3960   -0.5450 c         1 MOL      0.725320
    151 O22        -5.1570   10.1960   -0.7430 o         1 MOL     -0.704888
    152 O23        -3.0250    9.7480   -0.6580 o         1 MOL     -0.704888
    153 H65        -1.4600    5.7630   -1.4130 hn        1 MOL      0.248786
    154 H66        -3.7120    5.4180    0.3090 h1        1 MOL     -0.075495
    155 H67        -3.2660    7.3570   -1.9130 hc        1 MOL     -0.004577
    156 H68        -2.3510    7.4210   -0.3310 hc        1 MOL     -0.004577
    157 H69        -4.2170    7.6490    0.8600 hc        1 MOL      0.029949
    158 H70        -5.3720    7.5280   -0.4530 hc        1 MOL      0.029949
    159 N14        -5.2740    4.2200   -1.4100 n         1 MOL     -0.539442
    160 C53        -5.3540    3.4650   -0.1300 c3        1 MOL     -0.140154
    161 C54        -6.1210    4.2620    0.9850 c         1 MOL      0.440160
    162 O24        -6.8600    5.1700    0.6790 o         1 MOL     -0.486892
    163 C55        -5.9540    2.0700   -0.3580 c3        1 MOL     -0.034081
    164 C56        -7.5150    1.9700   -0.3220 c3        1 MOL     -0.178659
    165 C57        -8.1060    0.5750   -0.4690 c         1 MOL      0.489872
    166 O25        -8.8910    0.2000   -1.3900 o         1 MOL     -0.620681
    167 O26        -7.9330   -0.2480    0.4180 o         1 MOL     -0.620681
    168 H71        -6.1020    4.1360   -1.9980 hn        1 MOL      0.335119
    169 H72        -4.3410    3.3000    0.2330 h1        1 MOL      0.137614
    170 H73        -5.5150    1.4230    0.4120 hc        1 MOL      0.084037
    171 H74        -5.5930    1.6870   -1.3120 hc        1 MOL      0.084037
    172 H75        -7.9270    2.6150   -1.1000 hc        1 MOL      0.063549
    173 H76        -7.8950    2.4280    0.5850 hc        1 MOL      0.063549
    174 N15        -5.7830    3.9790    2.2340 n         1 MOL     -0.269674
    175 C58        -6.3600    4.5310    3.4430 c3        1 MOL     -0.058578
    176 H77        -5.5870    5.0470    4.0130 h1        1 MOL      0.053903
    177 H78        -7.1490    5.2360    3.1820 h1        1 MOL      0.053903
    178 H79        -6.7790    3.7260    4.0470 h1        1 MOL      0.053903
    179 H80        -5.0630    3.2890    2.3760 hn        1 MOL      0.255202
    180 Ca1        -9.5250   -2.1470   -0.3520 Ca        1 MOL      1.717426
    181 O27        -9.6780   -2.7260   -2.9920 oh        1 MOL     -0.853595
    182 H81       -10.1790   -2.2580   -3.6550 ho        1 MOL      0.396818
    183 H82        -9.6910   -3.6390   -3.2750 ho        1 MOL      0.396818
    184 O28       -10.7140   -0.1740    1.2710 oh        1 MOL     -0.853595
    185 H83       -10.1780    0.4900    1.7100 ho        1 MOL      0.396818
    186 H84       -11.6100    0.0980    1.4540 ho        1 MOL      0.396818
    187 O29        -9.4970   -4.8850   -0.2060 oh        1 MOL     -0.853595
    188 H85        -8.7750   -5.3000   -0.6750 ho        1 MOL      0.396818
    189 H86       -10.0480   -5.6150    0.0760 ho        1 MOL      0.396818
    190 O30       -11.5070   -3.0780    1.1380 oh        1 MOL     -0.853595
    191 H87       -11.3660   -4.0020    1.3650 ho        1 MOL      0.396818
    192 H88       -12.1520   -2.7730    1.7840 ho        1 MOL      0.396818
    193 O31       -12.0870   -1.8140   -1.4080 oh        1 MOL     -0.853595
    194 H89       -12.6520   -1.9190   -0.6490 ho        1 MOL      0.396818
    195 H90       -12.6360   -1.3660   -2.0540 ho        1 MOL      0.396818
@<TRIPOS>BOND
     1    1    2 1   
     2    1    4 1   
     3    1    5 1   
     4    1    6 1   
     5    2    3 2   
     6    2    7 1   
     7    7    8 1   
     8    7   15 1   
     9    8    9 1   
    10    8   11 1   
    11    8   16 1   
    12    9   10 2   
    13    9   19 1   
    14   11   12 1   
    15   11   17 1   
    16   11   18 1   
    17   12   13 1   
    18   12   14 1   
    19   19   20 1   
    20   19   27 1   
    21   20   21 1   
    22   20   23 1   
    23   20   28 1   
    24   21   22 2   
    25   21   38 1   
    26   23   24 1   
    27   23   25 1   
    28   23   29 1   
    29   24   26 1   
    30   24   30 1   
    31   24   31 1   
    32   25   32 1   
    33   25   33 1   
    34   25   34 1   
    35   26   35 1   
    36   26   36 1   
    37   26   37 1   
    38   38   39 1   
    39   38   46 1   
    40   39   40 1   
    41   39   42 1   
    42   39   47 1   
    43   40   41 2   
    44   40   50 1   
    45   42   43 1   
    46   42   48 1   
    47   42   49 1   
    48   43   44 1   
    49   43   45 1   
    50   50   51 1   
    51   50   54 1   
    52   51   52 1   
    53   51   55 1   
    54   51   56 1   
    55   52   53 2   
    56   52   57 1   
    57   57   58 1   
    58   57   65 1   
    59   58   59 1   
    60   58   61 1   
    61   58   66 1   
    62   59   60 2   
    63   59   69 1   
    64   61   62 1   
    65   61   67 1   
    66   61   68 1   
    67   62   63 1   
    68   62   64 1   
    69   69   70 1   
    70   69   73 1   
    71   70   71 1   
    72   70   74 1   
    73   70   75 1   
    74   71   72 2   
    75   71   76 1   
    76   76   77 1   
    77   76   85 1   
    78   77   78 1   
    79   77   80 1   
    80   77   86 1   
    81   78   79 2   
    82   78   93 1   
    83   80   81 1   
    84   80   87 1   
    85   80   88 1   
    86   81   82 1   
    87   81   89 1   
    88   81   90 1   
    89   82   83 1   
    90   82   84 2   
    91   83   91 1   
    92   83   92 1   
    93   93   94 1   
    94   93  100 1   
    95   94   95 1   
    96   94   97 1   
    97   94  101 1   
    98   95   96 2   
    99   95  109 1   
   100   97   98 1   
   101   97   99 1   
   102   97  102 1   
   103   98  103 1   
   104   98  104 1   
   105   98  105 1   
   106   99  106 1   
   107   99  107 1   
   108   99  108 1   
   109  109  110 1   
   110  109  117 1   
   111  110  111 1   
   112  110  113 1   
   113  110  118 1   
   114  111  112 2   
   115  111  123 1   
   116  113  114 1   
   117  113  119 1   
   118  113  120 1   
   119  114  115 1   
   120  114  116 2   
   121  115  121 1   
   122  115  122 1   
   123  123  124 1   
   124  123  135 1   
   125  124  125 1   
   126  124  127 1   
   127  124  136 1   
   128  125  126 2   
   129  125  144 1   
   130  127  128 1   
   131  127  137 1   
   132  127  138 1   
   133  128  129 ar  
   134  128  130 ar  
   135  129  131 ar  
   136  129  139 1   
   137  130  132 ar  
   138  130  140 1   
   139  131  133 ar  
   140  131  141 1   
   141  132  133 ar  
   142  132  142 1   
   143  133  134 1   
   144  134  143 1   
   145  144  145 1   
   146  144  153 1   
   147  145  146 1   
   148  145  148 1   
   149  145  154 1   
   150  146  147 2   
   151  146  159 1   
   152  148  149 1   
   153  148  155 1   
   154  148  156 1   
   155  149  150 1   
   156  149  157 1   
   157  149  158 1   
   158  150  151 1   
   159  150  152 1   
   160  159  160 1   
   161  159  168 1   
   162  160  161 1   
   163  160  163 1   
   164  160  169 1   
   165  161  162 2   
   166  161  174 1   
   167  163  164 1   
   168  163  170 1   
   169  163  171 1   
   170  164  165 1   
   171  164  172 1   
   172  164  173 1   
   173  165  166 1   
   174  165  167 1   
   175  174  175 1   
   176  174  179 1   
   177  175  176 1   
   178  175  177 1   
   179  175  178 1   
   180  181  182 1   
   181  181  183 1   
   182  184  185 1   
   183  184  186 1   
   184  187  188 1   
   185  187  189 1   
   186  190  191 1   
   187  190  192 1   
   188  193  194 1   
   189  193  195 1   
@<TRIPOS>SUBSTRUCTURE
     1 MOL         1 TEMP              0 ****  ****    0 ROOT
