@<TRIPOS>MOLECULE
MOL
  192   187     1     0     0
SMALL
resp


@<TRIPOS>ATOM
      1 C1          9.8670    0.5510    1.6240 c3        1 MOL     -0.569489
      2 C2          8.5710    0.0930    0.8610 c         1 MOL      0.735912
      3 O1          7.5260    0.0760    1.4470 o         1 MOL     -0.630249
      4 H1         10.3330   -0.3120    2.0980 hc        1 MOL      0.145566
      5 H2         10.5670    0.9990    0.9170 hc        1 MOL      0.145566
      6 H3          9.6010    1.2850    2.3850 hc        1 MOL      0.145566
      7 N1          8.6570   -0.3200   -0.4110 n         1 MOL     -0.499599
      8 C3          7.4940   -0.7330   -1.2130 c3        1 MOL      0.003795
      9 C4          6.9930   -2.1650   -0.9130 c         1 MOL      0.392344
     10 O2          6.8530   -3.0600   -1.7390 o         1 MOL     -0.440024
     11 C5          7.8350   -0.5610   -2.7310 c3        1 MOL     -0.233754
     12 C6          9.1960   -1.0410   -3.2350 c         1 MOL      0.729445
     13 O3          9.8810   -1.7960   -2.4670 o         1 MOL     -0.637585
     14 O4          9.6260   -0.7280   -4.3800 o         1 MOL     -0.637585
     15 H4          9.4810   -0.3010   -0.9980 hn        1 MOL      0.274535
     16 H5          6.6830   -0.0380   -0.9870 h1        1 MOL      0.124627
     17 H6          7.8260    0.4920   -3.0050 hc        1 MOL      0.079194
     18 H7          7.0790   -1.0410   -3.3430 hc        1 MOL      0.079194
     19 N2          6.4640   -2.2620    0.2820 n         1 MOL     -0.334842
     20 C7          5.9000   -3.5570    0.7440 c3        1 MOL      0.174237
     21 C8          4.4790   -3.9020    0.2810 c         1 MOL      0.523041
     22 O5          4.2360   -5.0360   -0.1040 o         1 MOL     -0.549896
     23 C9          6.0840   -3.6670    2.2990 c3        1 MOL     -0.085797
     24 C10         7.5580   -3.6300    2.7370 c3        1 MOL     -0.017764
     25 C11         7.8600   -3.7020    4.2220 c3        1 MOL      0.060738
     26 C12         9.4170   -3.7610    4.4320 c3        1 MOL      0.030205
     27 N3          9.5560   -3.7630    5.8780 n4        1 MOL     -0.159079
     28 H8          6.6140   -1.5070    0.9310 hn        1 MOL      0.276886
     29 H9          6.5450   -4.3410    0.3720 h1        1 MOL      0.033400
     30 H10         5.5990   -4.6030    2.5670 hc        1 MOL      0.015432
     31 H11         5.5140   -2.8730    2.7840 hc        1 MOL      0.015432
     32 H12         8.0140   -2.7060    2.3820 hc        1 MOL      0.029613
     33 H13         8.0860   -4.4960    2.3530 hc        1 MOL      0.029613
     34 H14         7.4840   -4.6250    4.6800 hc        1 MOL     -0.003597
     35 H15         7.4420   -2.8370    4.7270 hc        1 MOL     -0.003597
     36 H16         9.8510   -2.9340    3.8660 hx        1 MOL      0.068714
     37 H17         9.6910   -4.7320    4.0130 hx        1 MOL      0.068714
     38 H18         8.9980   -4.4990    6.2860 hn        1 MOL      0.241872
     39 H19        10.5110   -3.9750    6.1300 hn        1 MOL      0.241872
     40 H20         9.2770   -2.9150    6.3520 hn        1 MOL      0.241872
     41 N4          3.5780   -2.9430    0.1930 n         1 MOL     -0.478631
     42 C13         3.5190   -1.6330    0.8080 c3        1 MOL      0.191061
     43 C14         3.6130   -0.3580   -0.0760 c         1 MOL      0.170569
     44 O6          3.8470   -0.4260   -1.3080 o         1 MOL     -0.333707
     45 C15         2.4180   -1.5470    1.8740 c3        1 MOL     -0.160433
     46 C16         1.0120   -1.5300    1.3240 c         1 MOL      0.719925
     47 O7          0.7580   -1.0510    0.1790 o         1 MOL     -0.711571
     48 O8          0.1010   -1.9620    2.1270 o         1 MOL     -0.711571
     49 H21         2.7840   -3.1660   -0.3910 hn        1 MOL      0.349987
     50 H22         4.4160   -1.6600    1.4350 h1        1 MOL      0.039744
     51 H23         2.5440   -0.7460    2.6010 hc        1 MOL      0.032960
     52 H24         2.4710   -2.4170    2.5310 hc        1 MOL      0.032960
     53 N5          3.7640    0.8580    0.5410 n         1 MOL     -0.389212
     54 C17         3.9560    2.0950   -0.1840 c3        1 MOL      0.013711
     55 C18         2.7300    2.4860   -1.0990 c         1 MOL      0.602189
     56 O9          1.5760    2.0830   -0.9960 o         1 MOL     -0.429148
     57 H25         3.6950    0.9220    1.5500 hn        1 MOL      0.277047
     58 H26         4.7540    2.1600   -0.9170 h1        1 MOL      0.051123
     59 H27         4.1020    2.9330    0.5010 h1        1 MOL      0.051123
     60 N6          3.0310    3.5270   -1.8870 n         1 MOL     -0.482188
     61 C19         2.0560    4.2780   -2.7090 c3        1 MOL      0.195198
     62 C20         2.6130    5.6630   -2.8450 c         1 MOL      0.466007
     63 O10         3.7840    5.7520   -3.1510 o         1 MOL     -0.525073
     64 C21         1.7760    3.6370   -4.0820 c3        1 MOL     -0.224542
     65 C22         1.2720    2.2160   -4.0380 c         1 MOL      0.627429
     66 O11         0.1970    2.0510   -3.4690 o         1 MOL     -0.654060
     67 O12         1.9500    1.2790   -4.4800 o         1 MOL     -0.654060
     68 H28         3.9580    3.9200   -1.9020 hn        1 MOL      0.276551
     69 H29         1.1640    4.4180   -2.1070 h1        1 MOL     -0.016028
     70 H30         2.7590    3.6710   -4.5640 hc        1 MOL      0.075091
     71 H31         1.1460    4.2800   -4.6900 hc        1 MOL      0.075091
     72 N7          1.9380    6.8030   -2.7350 n         1 MOL     -0.416417
     73 C23         0.4820    6.8780   -2.7510 c3        1 MOL     -0.001501
     74 C24        -0.2910    6.3300   -1.4530 c         1 MOL      0.709554
     75 O13         0.3310    6.3120   -0.3820 o         1 MOL     -0.583273
     76 H32         2.4730    7.6380   -2.5380 hn        1 MOL      0.310388
     77 H33         0.1910    6.1750   -3.5320 h1        1 MOL      0.039724
     78 H34         0.0380    7.8480   -2.9550 h1        1 MOL      0.039724
     79 N8         -1.5770    5.9750   -1.5880 n         1 MOL     -0.684613
     80 C25        -2.3140    5.3300   -0.4490 c3        1 MOL     -0.102508
     81 C26        -1.6690    4.0540    0.2070 c         1 MOL      1.107097
     82 O14        -1.1710    3.1430   -0.4490 o         1 MOL     -0.823749
     83 C27        -3.7720    5.2350   -0.8060 c3        1 MOL      0.315660
     84 C28        -4.6410    5.0190    0.4100 c3        1 MOL     -0.250160
     85 O15        -3.9800    4.1600   -1.7240 oh        1 MOL     -0.592471
     86 H35        -2.1260    6.2180   -2.4000 hn        1 MOL      0.342272
     87 H36        -2.1740    6.1410    0.2560 h1        1 MOL      0.085250
     88 H37        -4.1060    6.1420   -1.3140 h1        1 MOL      0.024592
     89 H38        -3.3030    4.0640   -2.4010 ho        1 MOL      0.386994
     90 H39        -4.5180    3.9450    0.6020 hc        1 MOL      0.065375
     91 H40        -4.2940    5.6610    1.2150 hc        1 MOL      0.065375
     92 H41        -5.6640    5.2490    0.1260 hc        1 MOL      0.065375
     93 N9         -1.7210    4.0650    1.5680 n         1 MOL     -0.769463
     94 C29        -1.0940    3.2070    2.5390 c3        1 MOL      0.046728
     95 C30        -1.3730    1.7080    2.1730 c         1 MOL      0.612808
     96 O16        -0.6760    1.1340    1.3780 o         1 MOL     -0.624086
     97 C31         0.3930    3.5930    2.5420 c3        1 MOL      0.082442
     98 C32         0.5600    5.1430    2.8630 c3        1 MOL     -0.063800
     99 C33         1.3110    2.7040    3.5050 c3        1 MOL     -0.330701
    100 C34         0.0800    5.6130    4.2250 c3        1 MOL     -0.219952
    101 H42        -2.3580    4.7730    1.9090 hn        1 MOL      0.351319
    102 H43        -1.6240    3.3140    3.4910 h1        1 MOL      0.055864
    103 H44         0.7510    3.3980    1.5320 hc        1 MOL      0.001275
    104 H45        -0.0670    5.6750    2.1500 hc        1 MOL      0.073153
    105 H46         1.5820    5.4990    2.7290 hc        1 MOL      0.073153
    106 H47         0.7320    2.3560    4.3540 hc        1 MOL      0.098907
    107 H48         1.5240    1.7470    3.0200 hc        1 MOL      0.098907
    108 H49         2.2300    3.2230    3.7520 hc        1 MOL      0.098907
    109 H50        -1.0120    5.6180    4.2560 hc        1 MOL      0.049164
    110 H51         0.5340    5.0670    5.0490 hc        1 MOL      0.049164
    111 H52         0.3260    6.6700    4.2700 hc        1 MOL      0.049164
    112 N10        -2.3460    1.1220    2.8640 n         1 MOL     -0.411682
    113 C35        -2.7610   -0.3380    2.9700 c3        1 MOL     -0.124760
    114 C36        -4.2330   -0.5520    2.8430 c         1 MOL      0.384077
    115 O17        -4.6430   -1.6230    3.2000 o         1 MOL     -0.507343
    116 C37        -2.2330   -1.0440    4.2120 c3        1 MOL      0.427178
    117 C38        -2.7810   -0.4880    5.4920 c3        1 MOL     -0.177440
    118 O18        -0.8450   -0.9780    4.4230 oh        1 MOL     -0.676997
    119 H53        -2.7590    1.7460    3.5340 hn        1 MOL      0.269383
    120 H54        -2.2340   -0.7500    2.1120 h1        1 MOL      0.140321
    121 H55        -2.5570   -2.0800    4.0840 h1        1 MOL      0.008406
    122 H56        -0.4110   -1.0580    3.5680 ho        1 MOL      0.442474
    123 H57        -2.9130    0.5980    5.4980 hc        1 MOL      0.033360
    124 H58        -3.7230   -0.9450    5.7890 hc        1 MOL      0.033360
    125 H59        -2.0970   -0.7170    6.3040 hc        1 MOL      0.033360
    126 N11        -4.9840    0.4940    2.4960 n         1 MOL      0.025710
    127 C39        -6.3760    0.4540    2.4640 c3        1 MOL     -0.236823
    128 C40        -6.8260   -0.1340    1.1650 c         1 MOL      0.568814
    129 O19        -7.1970    0.5060    0.2210 o         1 MOL     -0.511321
    130 C41        -6.9980    1.7980    2.8200 c3        1 MOL      0.318510
    131 C42        -6.8500    2.0910    4.2860 c3        1 MOL     -0.100920
    132 O20        -6.2790    2.9430    2.2410 oh        1 MOL     -0.632779
    133 H60        -4.5480    1.3890    2.3300 hn        1 MOL      0.166082
    134 H61        -6.7090   -0.2590    3.2190 h1        1 MOL      0.086921
    135 H62        -8.0450    1.8210    2.5030 h1        1 MOL      0.037048
    136 H63        -6.8790    3.6830    2.1350 ho        1 MOL      0.400996
    137 H64        -7.3070    1.2800    4.8460 hc        1 MOL      0.011304
    138 H65        -5.7910    2.2000    4.5140 hc        1 MOL      0.011304
    139 H66        -7.4270    2.9940    4.4970 hc        1 MOL      0.011304
    140 N12        -6.7880   -1.4880    1.1610 n         1 MOL     -0.470740
    141 C43        -6.5930   -2.3720    0.0190 c3        1 MOL      0.075272
    142 C44        -5.2640   -2.2600   -0.6080 c         1 MOL      0.477582
    143 O21        -4.6960   -1.1490   -0.7510 o         1 MOL     -0.485469
    144 C45        -7.6670   -2.4080   -1.0060 c3        1 MOL     -0.170199
    145 C46        -8.9590   -3.1300   -0.5130 c3        1 MOL     -0.109363
    146 C47       -10.1460   -2.9270   -1.4760 c3        1 MOL      0.023610
    147 C48       -11.5560   -3.2590   -0.9330 c3        1 MOL     -0.053511
    148 N13       -12.0340   -4.6550   -0.8160 n4        1 MOL     -0.164968
    149 H67        -6.6490   -1.8920    2.0750 hn        1 MOL      0.266931
    150 H68        -6.6050   -3.3530    0.4940 h1        1 MOL      0.033197
    151 H69        -7.2240   -2.9510   -1.8350 hc        1 MOL      0.092462
    152 H70        -7.9480   -1.4310   -1.3940 hc        1 MOL      0.092462
    153 H71        -9.2840   -2.6070    0.3870 hc        1 MOL      0.043301
    154 H72        -8.8230   -4.2060   -0.3430 hc        1 MOL      0.043301
    155 H73        -9.8920   -3.5450   -2.3310 hc        1 MOL      0.047043
    156 H74       -10.0940   -1.8720   -1.7390 hc        1 MOL      0.047043
    157 H75       -12.3190   -2.6790   -1.4460 hx        1 MOL      0.091435
    158 H76       -11.4730   -2.8130    0.0650 hx        1 MOL      0.091435
    159 H77       -12.3370   -4.9760   -1.7280 hn        1 MOL      0.201358
    160 H78       -11.3580   -5.2630   -0.3860 hn        1 MOL      0.201358
    161 H79       -12.7910   -4.8030   -0.1600 hn        1 MOL      0.201358
    162 N14        -4.6150   -3.3410   -1.0920 n         1 MOL     -0.287959
    163 C49        -3.4000   -3.3410   -1.8870 c3        1 MOL      0.060968
    164 C50        -2.2380   -2.7790   -1.0130 c         1 MOL      0.402836
    165 O22        -1.6880   -1.7270   -1.3480 o         1 MOL     -0.543289
    166 C51        -3.0810   -4.7370   -2.5070 c3        1 MOL      0.079635
    167 C52        -3.7340   -5.1450   -3.8000 c3        1 MOL     -0.164865
    168 C53        -3.0960   -6.4420   -4.3840 c         1 MOL      0.679108
    169 O23        -2.1710   -6.3890   -5.2520 o         1 MOL     -0.632594
    170 O24        -3.5620   -7.5540   -3.9910 o         1 MOL     -0.632594
    171 H80        -5.1090   -4.2100   -0.9400 hn        1 MOL      0.263544
    172 H81        -3.5940   -2.6600   -2.7190 h1        1 MOL      0.044440
    173 H82        -3.2430   -5.4560   -1.7130 hc        1 MOL      0.015854
    174 H83        -2.0210   -4.7660   -2.7480 hc        1 MOL      0.015854
    175 H84        -3.6640   -4.2480   -4.4130 hc        1 MOL     -0.020867
    176 H85        -4.7750   -5.3350   -3.5180 hc        1 MOL     -0.020867
    177 N15        -1.8400   -3.3810    0.1260 n         1 MOL     -0.347528
    178 C54        -2.3660   -4.6540    0.7100 c3        1 MOL      0.029372
    179 H86        -2.1670   -4.6720    1.7820 h1        1 MOL      0.022178
    180 H87        -3.4410   -4.7140    0.5400 h1        1 MOL      0.022178
    181 H88        -1.8740   -5.5030    0.2350 h1        1 MOL      0.022178
    182 H89        -1.1060   -2.9540    0.6810 hn        1 MOL      0.331432
    183 Ca1        -0.5360    0.6380   -1.2250 Ca        1 MOL      1.768965
    184 O25        -3.1810    0.8810   -0.5210 oh        1 MOL     -0.827143
    185 H90        -3.6900    1.5910   -0.9070 ho        1 MOL      0.391833
    186 H91        -3.6560    0.0860   -0.7700 ho        1 MOL      0.391833
    187 O26        -2.1410    0.1700   -3.3640 oh        1 MOL     -0.827143
    188 H92        -1.7670   -0.5810   -3.8310 ho        1 MOL      0.391833
    189 H93        -3.0660    0.1710   -3.6260 ho        1 MOL      0.391833
    190 O27         1.0650   -0.6950   -2.9550 oh        1 MOL     -0.827143
    191 H94         0.6890   -1.4120   -3.4550 ho        1 MOL      0.391833
    192 H95         1.2790   -0.0260   -3.6150 ho        1 MOL      0.391833
@<TRIPOS>BOND
     1    1    2 1   
     2    1    4 1   
     3    1    5 1   
     4    1    6 1   
     5    2    3 2   
     6    2    7 1   
     7    7    8 1   
     8    7   15 1   
     9    8    9 1   
    10    8   11 1   
    11    8   16 1   
    12    9   10 2   
    13    9   19 1   
    14   11   12 1   
    15   11   17 1   
    16   11   18 1   
    17   12   13 1   
    18   12   14 1   
    19   19   20 1   
    20   19   28 1   
    21   20   21 1   
    22   20   23 1   
    23   20   29 1   
    24   21   22 2   
    25   21   41 1   
    26   23   24 1   
    27   23   30 1   
    28   23   31 1   
    29   24   25 1   
    30   24   32 1   
    31   24   33 1   
    32   25   26 1   
    33   25   34 1   
    34   25   35 1   
    35   26   27 1   
    36   26   36 1   
    37   26   37 1   
    38   27   38 1   
    39   27   39 1   
    40   27   40 1   
    41   41   42 1   
    42   41   49 1   
    43   42   43 1   
    44   42   45 1   
    45   42   50 1   
    46   43   44 2   
    47   43   53 1   
    48   45   46 1   
    49   45   51 1   
    50   45   52 1   
    51   46   47 1   
    52   46   48 1   
    53   53   54 1   
    54   53   57 1   
    55   54   55 1   
    56   54   58 1   
    57   54   59 1   
    58   55   56 2   
    59   55   60 1   
    60   60   61 1   
    61   60   68 1   
    62   61   62 1   
    63   61   64 1   
    64   61   69 1   
    65   62   63 2   
    66   62   72 1   
    67   64   65 1   
    68   64   70 1   
    69   64   71 1   
    70   65   66 1   
    71   65   67 1   
    72   72   73 1   
    73   72   76 1   
    74   73   74 1   
    75   73   77 1   
    76   73   78 1   
    77   74   75 2   
    78   74   79 1   
    79   79   80 1   
    80   79   86 1   
    81   80   81 1   
    82   80   83 1   
    83   80   87 1   
    84   81   82 2   
    85   81   93 1   
    86   83   84 1   
    87   83   85 1   
    88   83   88 1   
    89   84   90 1   
    90   84   91 1   
    91   84   92 1   
    92   85   89 1   
    93   93   94 1   
    94   93  101 1   
    95   94   95 1   
    96   94   97 1   
    97   94  102 1   
    98   95   96 2   
    99   95  112 1   
   100   97   98 1   
   101   97   99 1   
   102   97  103 1   
   103   98  100 1   
   104   98  104 1   
   105   98  105 1   
   106   99  106 1   
   107   99  107 1   
   108   99  108 1   
   109  100  109 1   
   110  100  110 1   
   111  100  111 1   
   112  112  113 1   
   113  112  119 1   
   114  113  114 1   
   115  113  116 1   
   116  113  120 1   
   117  114  115 2   
   118  114  126 1   
   119  116  117 1   
   120  116  118 1   
   121  116  121 1   
   122  117  123 1   
   123  117  124 1   
   124  117  125 1   
   125  118  122 1   
   126  126  127 1   
   127  126  133 1   
   128  127  128 1   
   129  127  130 1   
   130  127  134 1   
   131  128  129 2   
   132  128  140 1   
   133  130  131 1   
   134  130  132 1   
   135  130  135 1   
   136  131  137 1   
   137  131  138 1   
   138  131  139 1   
   139  132  136 1   
   140  140  141 1   
   141  140  149 1   
   142  141  142 1   
   143  141  144 1   
   144  141  150 1   
   145  142  143 2   
   146  142  162 1   
   147  144  145 1   
   148  144  151 1   
   149  144  152 1   
   150  145  146 1   
   151  145  153 1   
   152  145  154 1   
   153  146  147 1   
   154  146  155 1   
   155  146  156 1   
   156  147  148 1   
   157  147  157 1   
   158  147  158 1   
   159  148  159 1   
   160  148  160 1   
   161  148  161 1   
   162  162  163 1   
   163  162  171 1   
   164  163  164 1   
   165  163  166 1   
   166  163  172 1   
   167  164  165 2   
   168  164  177 1   
   169  166  167 1   
   170  166  173 1   
   171  166  174 1   
   172  167  168 1   
   173  167  175 1   
   174  167  176 1   
   175  168  169 1   
   176  168  170 1   
   177  177  178 1   
   178  177  182 1   
   179  178  179 1   
   180  178  180 1   
   181  178  181 1   
   182  184  185 1   
   183  184  186 1   
   184  187  188 1   
   185  187  189 1   
   186  190  191 1   
   187  190  192 1   
@<TRIPOS>SUBSTRUCTURE
     1 MOL         1 TEMP              0 ****  ****    0 ROOT
