@<TRIPOS>MOLECULE
MOL
  185   180     1     0     0
SMALL
resp


@<TRIPOS>ATOM
      1 C1          5.6220   -1.2920   -4.0960 c3        1 MOL     -0.425492
      2 C2          6.2130   -1.2280   -2.6990 c         1 MOL      0.692967
      3 O1          5.5570   -1.0140   -1.7040 o         1 MOL     -0.523820
      4 H1          6.2950   -0.8010   -4.7980 hc        1 MOL      0.112543
      5 H2          5.4920   -2.3340   -4.3880 hc        1 MOL      0.112543
      6 H3          4.6550   -0.7880   -4.1070 hc        1 MOL      0.112543
      7 N1          7.5410   -1.4210   -2.6130 n         1 MOL     -0.673232
      8 C3          8.3940   -1.5790   -1.3970 c3        1 MOL      0.190742
      9 C4          8.3600   -0.4510   -0.3070 c         1 MOL      0.376006
     10 O2          8.7190   -0.6020    0.8710 o         1 MOL     -0.485828
     11 C5          8.2140   -3.0180   -0.8160 c3        1 MOL     -0.217361
     12 C6          8.1360   -4.1460   -1.8420 c         1 MOL      0.790355
     13 O3          7.4900   -5.2070   -1.6310 o         1 MOL     -0.707861
     14 O4          8.6700   -3.8900   -2.9330 o         1 MOL     -0.707861
     15 H4          7.9950   -1.7490   -3.4590 hn        1 MOL      0.367420
     16 H5          9.3640   -1.4460   -1.8810 h1        1 MOL      0.050571
     17 H6          7.3950   -3.0610   -0.1040 hc        1 MOL      0.051090
     18 H7          9.0800   -3.2810   -0.2180 hc        1 MOL      0.051090
     19 N2          7.7390    0.6940   -0.6810 n         1 MOL     -0.259719
     20 C7          7.7780    1.9470    0.0260 c3        1 MOL      0.011155
     21 C8          6.4660    2.2220    0.7870 c         1 MOL      0.548817
     22 O5          6.2210    3.3630    1.1720 o         1 MOL     -0.584235
     23 C9          8.2900    3.0640   -0.9600 c3        1 MOL      0.088296
     24 C10         9.0690    4.2450   -0.4430 c3        1 MOL      0.018343
     25 C11         9.3030    5.3220   -1.6120 c3        1 MOL     -0.065200
     26 C12         9.7800    6.5930   -0.9970 c3        1 MOL      0.057417
     27 N3          9.7580    7.6780   -1.9690 n4        1 MOL     -0.278316
     28 H8          7.4100    0.7790   -1.6300 hn        1 MOL      0.153153
     29 H9          8.5890    1.8880    0.7610 h1        1 MOL      0.056945
     30 H10         7.4130    3.4170   -1.5160 hc        1 MOL     -0.004499
     31 H11         8.9840    2.6630   -1.7010 hc        1 MOL     -0.004499
     32 H12        10.0480    3.9650   -0.0590 hc        1 MOL      0.015609
     33 H13         8.5170    4.7450    0.3530 hc        1 MOL      0.015609
     34 H14         8.3000    5.4050   -2.0340 hc        1 MOL      0.030324
     35 H15         9.8870    4.9450   -2.4410 hc        1 MOL      0.030324
     36 H16        10.7650    6.4290   -0.5680 hx        1 MOL      0.082830
     37 H17         9.1830    6.8720   -0.1240 hx        1 MOL      0.082830
     38 H18        10.3410    7.5510   -2.7860 hn        1 MOL      0.296167
     39 H19         8.8270    7.6430   -2.3680 hn        1 MOL      0.296167
     40 H20         9.9210    8.6040   -1.6050 hn        1 MOL      0.296167
     41 N4          5.5680    1.2210    0.7280 n         1 MOL     -0.365623
     42 C13         4.1360    1.3080    1.0980 c3        1 MOL     -0.169113
     43 C14         3.8400    1.2300    2.6370 c         1 MOL      0.451269
     44 O6          4.1320    0.1740    3.2190 o         1 MOL     -0.485632
     45 C15         3.3450    0.2840    0.3360 c3        1 MOL      0.227563
     46 C16         1.8060    0.6070    0.3400 c         1 MOL      0.604260
     47 O7          1.3230    1.0750   -0.7050 o         1 MOL     -0.775200
     48 O8          1.1190    0.4840    1.3220 o         1 MOL     -0.775200
     49 H21         5.7990    0.4030    0.1850 hn        1 MOL      0.286932
     50 H22         3.7400    2.2610    0.7530 h1        1 MOL      0.065477
     51 H23         3.5940   -0.7240    0.6970 hc        1 MOL      0.009893
     52 H24         3.7060    0.3670   -0.6850 hc        1 MOL      0.009893
     53 N5          3.3230    2.2640    3.3120 n         1 MOL     -0.100950
     54 C17         3.1480    2.3030    4.7600 c3        1 MOL     -0.311281
     55 C18         2.0490    1.4410    5.3000 c         1 MOL      0.662633
     56 O9          1.7280    1.6390    6.4660 o         1 MOL     -0.556046
     57 H25         3.1360    3.0940    2.7760 hn        1 MOL      0.177779
     58 H26         2.9840    3.3280    5.0730 h1        1 MOL      0.132001
     59 H27         4.0660    1.9230    5.2080 h1        1 MOL      0.132001
     60 N6          1.3660    0.6540    4.4430 n         1 MOL     -0.390605
     61 C19         0.3750   -0.3460    4.8700 c3        1 MOL     -0.036148
     62 C20         0.5620   -1.8130    4.2600 c         1 MOL      0.532868
     63 O10        -0.3640   -2.5800    4.1630 o         1 MOL     -0.525180
     64 C21        -1.0770    0.0950    4.7680 c3        1 MOL     -0.058067
     65 C22        -1.6460    0.2010    3.3810 c         1 MOL      0.597800
     66 N7         -2.2790   -0.7820    2.8790 n         1 MOL     -0.694952
     67 O11        -1.4070    1.1990    2.6940 o         1 MOL     -0.679456
     68 H28         1.4900    0.8190    3.4540 hn        1 MOL      0.273847
     69 H29         0.6090   -0.4530    5.9260 h1        1 MOL      0.096866
     70 H30        -1.2910    0.9970    5.3450 hc        1 MOL      0.042698
     71 H31        -1.6720   -0.6600    5.2740 hc        1 MOL      0.042698
     72 H32        -2.5210   -1.5030    3.5420 hn        1 MOL      0.352506
     73 H33        -2.5460   -0.6380    1.9100 hn        1 MOL      0.352506
     74 N8          1.7700   -2.0920    3.7680 n         1 MOL     -0.359668
     75 C23         2.1040   -3.3250    3.0140 c3        1 MOL     -0.112884
     76 C24         1.3060   -3.5910    1.7900 c         1 MOL      0.446358
     77 O12         1.0980   -4.8190    1.6210 o         1 MOL     -0.547894
     78 H34         2.3140   -1.2660    3.6300 hn        1 MOL      0.159190
     79 H35         2.1320   -4.1310    3.7420 h1        1 MOL      0.133456
     80 H36         3.1270   -3.2680    2.6500 h1        1 MOL      0.133456
     81 N9          0.7940   -2.6430    1.0200 n         1 MOL     -0.154669
     82 C25        -0.0150   -2.9050   -0.2110 c3        1 MOL      0.014039
     83 C26        -1.2720   -2.0920   -0.3550 c         1 MOL      0.278827
     84 O13        -1.2810   -0.9570    0.0550 o         1 MOL     -0.248194
     85 C27         0.8850   -2.6520   -1.5290 c3        1 MOL      0.087896
     86 C28         2.0190   -3.6190   -1.6540 ca        1 MOL      0.030889
     87 C29         1.7420   -4.8960   -2.1840 ca        1 MOL     -0.218017
     88 C30         3.3040   -3.1620   -1.2960 ca        1 MOL     -0.218017
     89 C31         2.7500   -5.8450   -2.4060 ca        1 MOL     -0.108708
     90 C32         4.3400   -4.1410   -1.5090 ca        1 MOL     -0.108708
     91 C33         4.1000   -5.3940   -2.1250 ca        1 MOL      0.184142
     92 O14         5.0620   -6.3650   -2.3840 oh        1 MOL     -0.463100
     93 H37         0.9180   -1.6790    1.2740 hn        1 MOL      0.184584
     94 H38        -0.2940   -3.9610   -0.2780 h1        1 MOL      0.078288
     95 H39         1.3240   -1.6570   -1.4850 hc        1 MOL     -0.021522
     96 H40         0.2720   -2.7360   -2.4370 hc        1 MOL     -0.021522
     97 H41         0.7560   -4.9940   -2.6170 ha        1 MOL      0.101200
     98 H42         3.5550   -2.3120   -0.6750 ha        1 MOL      0.101200
     99 H43         2.5670   -6.7580   -2.9500 ha        1 MOL      0.119851
    100 H44         5.3830   -3.9450   -1.3260 ha        1 MOL      0.119851
    101 H45         5.8360   -5.8850   -2.0680 ho        1 MOL      0.377127
    102 N10        -2.3020   -2.6450   -1.0840 n         1 MOL     -0.436983
    103 C34        -3.5870   -2.0890   -1.4750 c3        1 MOL     -0.024042
    104 C35        -4.6450   -1.9150   -0.3170 c         1 MOL      0.092334
    105 O15        -5.1180   -0.7630   -0.1350 o         1 MOL     -0.390793
    106 C36        -4.2190   -2.8460   -2.6690 c3        1 MOL      0.139865
    107 C37        -3.1690   -2.8180   -3.8880 c3        1 MOL     -0.130775
    108 C38        -5.5810   -2.3410   -3.0670 c3        1 MOL     -0.367602
    109 C39        -2.9830   -1.4870   -4.5970 c3        1 MOL     -0.050648
    110 H46        -1.9380   -3.4560   -1.5670 hn        1 MOL      0.262341
    111 H47        -3.3380   -1.0830   -1.8300 h1        1 MOL      0.164108
    112 H48        -4.3010   -3.8680   -2.3090 hc        1 MOL      0.003202
    113 H49        -3.5020   -3.5690   -4.5970 hc        1 MOL      0.057725
    114 H50        -2.1790   -3.1700   -3.6030 hc        1 MOL      0.057725
    115 H51        -6.3710   -2.3880   -2.3190 hc        1 MOL      0.111979
    116 H52        -5.4400   -1.2860   -3.3480 hc        1 MOL      0.111979
    117 H53        -5.9320   -3.0000   -3.8570 hc        1 MOL      0.111979
    118 H54        -2.4200   -0.7870   -3.9750 hc        1 MOL      0.023198
    119 H55        -2.3800   -1.6270   -5.4940 hc        1 MOL      0.023198
    120 H56        -3.8780   -0.9210   -4.8750 hc        1 MOL      0.023198
    121 N11        -4.9080   -2.9580    0.4910 n         1 MOL      0.002489
    122 C40        -5.7120   -2.7650    1.6770 c3        1 MOL     -0.044658
    123 C41        -7.1940   -2.3380    1.3800 c         1 MOL      0.316464
    124 O16        -7.8940   -1.7770    2.2500 o         1 MOL     -0.448842
    125 C42        -5.6980   -3.9960    2.5880 c3        1 MOL      0.215309
    126 O17        -4.4440   -4.4980    2.7580 oh        1 MOL     -0.617634
    127 H57        -4.5240   -3.8700    0.2730 hn        1 MOL      0.237762
    128 H58        -5.2380   -1.9540    2.2160 h1        1 MOL      0.096691
    129 H59        -6.3130   -4.8030    2.2030 h1        1 MOL      0.016822
    130 H60        -6.1250   -3.6480    3.5260 h1        1 MOL      0.016822
    131 H61        -4.4750   -4.8710    3.6410 ho        1 MOL      0.424373
    132 N12        -7.6630   -2.5640    0.1220 n         1 MOL     -0.332511
    133 C43        -8.8470   -1.9220   -0.4580 c3        1 MOL      0.241858
    134 C44        -8.9740   -0.4140   -0.2060 c         1 MOL      0.494739
    135 O18       -10.1060    0.0270   -0.0790 o         1 MOL     -0.536346
    136 C45       -10.0960   -2.7660   -0.0310 c3        1 MOL     -0.228772
    137 H62        -7.0770   -3.1870   -0.4160 hn        1 MOL      0.184941
    138 H63        -8.7060   -2.0000   -1.5320 h1        1 MOL      0.007360
    139 H64       -11.0190   -2.4060   -0.4820 hc        1 MOL      0.066898
    140 H65       -10.1210   -3.8440   -0.2040 hc        1 MOL      0.066898
    141 H66       -10.0710   -2.5760    1.0460 hc        1 MOL      0.066898
    142 N13        -7.9100    0.3680   -0.1210 n         1 MOL     -0.532047
    143 C46        -7.9660    1.8580    0.0510 c3        1 MOL      0.548223
    144 C47        -6.9450    2.4730   -0.9110 c         1 MOL      0.227928
    145 O19        -6.1230    1.7760   -1.5320 o         1 MOL     -0.392050
    146 C48        -7.5810    2.1790    1.5230 c3        1 MOL     -0.410847
    147 H67        -6.9840   -0.0260   -0.1870 hn        1 MOL      0.208182
    148 H68        -8.9280    2.2920   -0.2000 h1        1 MOL     -0.041230
    149 H69        -7.8550    3.1810    1.8420 hc        1 MOL      0.113734
    150 H70        -8.2900    1.4840    1.9810 hc        1 MOL      0.113734
    151 H71        -6.5160    2.0500    1.7250 hc        1 MOL      0.113734
    152 N14        -6.9720    3.7710   -1.0350 n         1 MOL     -0.398191
    153 C49        -6.1380    4.4480   -2.0000 c3        1 MOL     -0.299002
    154 C50        -6.3270    4.1340   -3.4560 c         1 MOL      0.632172
    155 O20        -5.4440    4.2370   -4.2620 o         1 MOL     -0.518102
    156 C51        -4.6700    4.5820   -1.4450 c3        1 MOL      0.213156
    157 C52        -4.4630    4.9930    0.0280 c3        1 MOL     -0.163838
    158 C53        -2.9870    5.0680    0.4120 c         1 MOL      0.687462
    159 O21        -2.2900    6.1100    0.3010 o         1 MOL     -0.698767
    160 O22        -2.4740    4.0130    0.7330 o         1 MOL     -0.698767
    161 H72        -7.5450    4.3510   -0.4460 hn        1 MOL      0.318401
    162 H73        -6.5210    5.4750   -1.9770 h1        1 MOL      0.123481
    163 H74        -4.0550    5.2060   -2.0880 hc        1 MOL     -0.009334
    164 H75        -4.2170    3.5980   -1.4000 hc        1 MOL     -0.009334
    165 H76        -4.9510    4.1730    0.5620 hc        1 MOL      0.003148
    166 H77        -5.0310    5.8870    0.2880 hc        1 MOL      0.003148
    167 N15        -7.5510    3.6740   -3.7740 n         1 MOL     -0.428672
    168 C54        -7.7230    3.0660   -5.1300 c3        1 MOL     -0.168028
    169 H78        -7.4980    3.8120   -5.8930 h1        1 MOL      0.097925
    170 H79        -7.0450    2.2200   -5.2370 h1        1 MOL      0.097925
    171 H80        -8.7520    2.7250   -5.2480 h1        1 MOL      0.097925
    172 H81        -8.2710    3.4620   -3.0960 hn        1 MOL      0.302900
    173 Ca1        -0.8820    1.9910    0.2310 Ca        1 MOL      1.736488
    174 O23        -0.1000    3.4430   -1.7450 oh        1 MOL     -0.831852
    175 H82        -0.5160    3.6590   -2.5750 ho        1 MOL      0.410102
    176 H83         0.7910    3.2110   -1.9780 ho        1 MOL      0.410102
    177 O24         0.5600    3.6880    1.6970 oh        1 MOL     -0.831852
    178 H84         0.1090    4.5210    1.6710 ho        1 MOL      0.410102
    179 H85         1.4420    3.9060    2.0190 ho        1 MOL      0.410102
    180 O25        -1.9850    1.1640   -2.0820 oh        1 MOL     -0.831852
    181 H86        -1.2800    0.8600   -2.6590 ho        1 MOL      0.410102
    182 H87        -2.6740    1.4490   -2.6680 ho        1 MOL      0.410102
    183 O26        -3.5390    1.4380    0.4950 oh        1 MOL     -0.831852
    184 H88        -4.1010    0.7760    0.0990 ho        1 MOL      0.410102
    185 H89        -4.1120    1.9360    1.0770 ho        1 MOL      0.410102
@<TRIPOS>BOND
     1    1    2 1   
     2    1    4 1   
     3    1    5 1   
     4    1    6 1   
     5    2    3 2   
     6    2    7 1   
     7    7    8 1   
     8    7   15 1   
     9    8    9 1   
    10    8   11 1   
    11    8   16 1   
    12    9   10 2   
    13    9   19 1   
    14   11   12 1   
    15   11   17 1   
    16   11   18 1   
    17   12   13 1   
    18   12   14 1   
    19   19   20 1   
    20   19   28 1   
    21   20   21 1   
    22   20   23 1   
    23   20   29 1   
    24   21   22 2   
    25   21   41 1   
    26   23   24 1   
    27   23   30 1   
    28   23   31 1   
    29   24   25 1   
    30   24   32 1   
    31   24   33 1   
    32   25   26 1   
    33   25   34 1   
    34   25   35 1   
    35   26   27 1   
    36   26   36 1   
    37   26   37 1   
    38   27   38 1   
    39   27   39 1   
    40   27   40 1   
    41   41   42 1   
    42   41   49 1   
    43   42   43 1   
    44   42   45 1   
    45   42   50 1   
    46   43   44 2   
    47   43   53 1   
    48   45   46 1   
    49   45   51 1   
    50   45   52 1   
    51   46   47 1   
    52   46   48 1   
    53   53   54 1   
    54   53   57 1   
    55   54   55 1   
    56   54   58 1   
    57   54   59 1   
    58   55   56 2   
    59   55   60 1   
    60   60   61 1   
    61   60   68 1   
    62   61   62 1   
    63   61   64 1   
    64   61   69 1   
    65   62   63 2   
    66   62   74 1   
    67   64   65 1   
    68   64   70 1   
    69   64   71 1   
    70   65   66 1   
    71   65   67 2   
    72   66   72 1   
    73   66   73 1   
    74   74   75 1   
    75   74   78 1   
    76   75   76 1   
    77   75   79 1   
    78   75   80 1   
    79   76   77 2   
    80   76   81 1   
    81   81   82 1   
    82   81   93 1   
    83   82   83 1   
    84   82   85 1   
    85   82   94 1   
    86   83   84 2   
    87   83  102 1   
    88   85   86 1   
    89   85   95 1   
    90   85   96 1   
    91   86   87 ar  
    92   86   88 ar  
    93   87   89 ar  
    94   87   97 1   
    95   88   90 ar  
    96   88   98 1   
    97   89   91 ar  
    98   89   99 1   
    99   90   91 ar  
   100   90  100 1   
   101   91   92 1   
   102   92  101 1   
   103  102  103 1   
   104  102  110 1   
   105  103  104 1   
   106  103  106 1   
   107  103  111 1   
   108  104  105 2   
   109  104  121 1   
   110  106  107 1   
   111  106  108 1   
   112  106  112 1   
   113  107  109 1   
   114  107  113 1   
   115  107  114 1   
   116  108  115 1   
   117  108  116 1   
   118  108  117 1   
   119  109  118 1   
   120  109  119 1   
   121  109  120 1   
   122  121  122 1   
   123  121  127 1   
   124  122  123 1   
   125  122  125 1   
   126  122  128 1   
   127  123  124 2   
   128  123  132 1   
   129  125  126 1   
   130  125  129 1   
   131  125  130 1   
   132  126  131 1   
   133  132  133 1   
   134  132  137 1   
   135  133  134 1   
   136  133  136 1   
   137  133  138 1   
   138  134  135 2   
   139  134  142 1   
   140  136  139 1   
   141  136  140 1   
   142  136  141 1   
   143  142  143 1   
   144  142  147 1   
   145  143  144 1   
   146  143  146 1   
   147  143  148 1   
   148  144  145 2   
   149  144  152 1   
   150  146  149 1   
   151  146  150 1   
   152  146  151 1   
   153  152  153 1   
   154  152  161 1   
   155  153  154 1   
   156  153  156 1   
   157  153  162 1   
   158  154  155 2   
   159  154  167 1   
   160  156  157 1   
   161  156  163 1   
   162  156  164 1   
   163  157  158 1   
   164  157  165 1   
   165  157  166 1   
   166  158  159 1   
   167  158  160 1   
   168  167  168 1   
   169  167  172 1   
   170  168  169 1   
   171  168  170 1   
   172  168  171 1   
   173  174  175 1   
   174  174  176 1   
   175  177  178 1   
   176  177  179 1   
   177  180  181 1   
   178  180  182 1   
   179  183  184 1   
   180  183  185 1   
@<TRIPOS>SUBSTRUCTURE
     1 MOL         1 TEMP              0 ****  ****    0 ROOT
