@<TRIPOS>MOLECULE
MOL
  181   177     1     0     0
SMALL
resp


@<TRIPOS>ATOM
      1 C1          6.5220    0.6870    6.1330 c3        1 MOL     -0.322862
      2 C2          5.8190    0.1270    4.9010 c         1 MOL      0.674038
      3 O1          4.6130    0.2820    4.7750 o         1 MOL     -0.555902
      4 H1          6.6080    1.7690    6.0410 hc        1 MOL      0.081304
      5 H2          5.9430    0.4440    7.0240 hc        1 MOL      0.081304
      6 H3          7.5170    0.2490    6.2140 hc        1 MOL      0.081304
      7 N1          6.5730   -0.4280    3.8990 n         1 MOL     -0.431440
      8 C3          8.0170   -0.6540    3.7360 c3        1 MOL      0.000501
      9 C4          8.3270   -2.0540    3.0540 c         1 MOL      0.433306
     10 O2          7.7690   -3.1010    3.3860 o         1 MOL     -0.470453
     11 C5          8.5720    0.5430    3.0110 c3        1 MOL     -0.221761
     12 C6          7.7800    0.8020    1.7360 c         1 MOL      0.796465
     13 O3          6.9790    1.7640    1.6530 o         1 MOL     -0.810070
     14 O4          7.8600    0.1330    0.6660 o         1 MOL     -0.810070
     15 H4          6.0560   -0.5950    3.0470 hn        1 MOL      0.269949
     16 H5          8.4960   -0.7440    4.7180 h1        1 MOL      0.098363
     17 H6          9.6050    0.3450    2.7390 hc        1 MOL      0.045130
     18 H7          8.5810    1.3790    3.6990 hc        1 MOL      0.045130
     19 N2          9.2660   -2.0760    2.1190 n         1 MOL     -0.435967
     20 C7          9.5290   -3.2780    1.3260 c3        1 MOL      0.214590
     21 C8          8.2480   -3.7750    0.5690 c         1 MOL      0.445469
     22 O5          8.1260   -4.9700    0.1910 o         1 MOL     -0.542949
     23 C9         10.3130   -4.3150    2.1290 c3        1 MOL     -0.368293
     24 H8          9.8340   -1.2550    1.9510 hn        1 MOL      0.301733
     25 H9         10.1560   -2.9400    0.4970 h1        1 MOL      0.019754
     26 H10        10.3410   -5.1770    1.4650 hc        1 MOL      0.100896
     27 H11        11.2880   -3.9020    2.3850 hc        1 MOL      0.100896
     28 H12         9.9340   -4.6690    3.0820 hc        1 MOL      0.100896
     29 N3          7.3460   -2.8850    0.1380 n         1 MOL     -0.381158
     30 C10         6.1100   -3.1190   -0.7070 c3        1 MOL      0.260949
     31 C11         6.0070   -2.2360   -1.9690 c         1 MOL      0.388928
     32 O6          6.2010   -0.9820   -1.8730 o         1 MOL     -0.563322
     33 C12         4.8300   -3.0840    0.0210 c3        1 MOL      0.023674
     34 C13         4.6350   -1.9700    1.0860 c         1 MOL      0.665757
     35 O7          3.8610   -2.2260    2.0220 o         1 MOL     -0.660038
     36 O8          5.1860   -0.8710    0.8510 o         1 MOL     -0.660038
     37 H13         7.5580   -1.9290    0.3860 hn        1 MOL      0.224675
     38 H14         6.1470   -4.1160   -1.1480 h1        1 MOL     -0.029062
     39 H15         4.8700   -4.0870    0.4450 hc        1 MOL     -0.016603
     40 H16         4.0070   -3.0740   -0.6910 hc        1 MOL     -0.016603
     41 N4          5.5170   -2.8610   -3.0470 n         1 MOL     -0.418528
     42 C14         5.2840   -2.1420   -4.3140 c3        1 MOL     -0.127398
     43 C15         3.9800   -1.3830   -4.3270 c         1 MOL      0.525021
     44 O9          3.7870   -0.3700   -5.0190 o         1 MOL     -0.571540
     45 H17         5.2520   -3.8300   -2.9770 hn        1 MOL      0.309667
     46 H18         5.1980   -2.8260   -5.1500 h1        1 MOL      0.126728
     47 H19         6.1110   -1.5120   -4.6650 h1        1 MOL      0.126728
     48 N5          3.0210   -1.6910   -3.4810 n         1 MOL     -0.494339
     49 C16         1.9610   -0.8320   -3.0700 c3        1 MOL      0.422353
     50 C17         2.4650    0.4210   -2.3600 c         1 MOL      0.069090
     51 O10         3.4040    0.2960   -1.5570 o         1 MOL     -0.385020
     52 C18         0.8440   -1.5910   -2.2170 c3        1 MOL     -0.411710
     53 C19        -0.0180   -2.5820   -3.0120 c         1 MOL      0.717050
     54 N6         -0.6630   -3.4970   -2.3390 n         1 MOL     -0.827895
     55 O11        -0.1510   -2.4390   -4.1980 o         1 MOL     -0.559529
     56 H20         3.2630   -2.5380   -2.9770 hn        1 MOL      0.302414
     57 H21         1.4910   -0.4030   -3.9460 h1        1 MOL      0.050866
     58 H22         0.1330   -0.9000   -1.7610 hc        1 MOL      0.110796
     59 H23         1.2970   -2.3070   -1.5350 hc        1 MOL      0.110796
     60 H24        -0.6520   -3.6410   -1.3380 hn        1 MOL      0.385686
     61 H25        -1.3890   -4.0090   -2.8190 hn        1 MOL      0.385686
     62 N7          1.8740    1.5690   -2.7260 n         1 MOL     -0.326257
     63 C20         2.2500    2.8990   -2.2010 c3        1 MOL      0.031793
     64 C21         1.5870    3.9450   -3.1070 c         1 MOL      0.650115
     65 O12         1.5030    3.7400   -4.2810 o         1 MOL     -0.531583
     66 H26         1.1760    1.4660   -3.4450 hn        1 MOL      0.314696
     67 H27         3.3270    3.0200   -2.2250 h1        1 MOL      0.048004
     68 H28         2.0380    3.0000   -1.1370 h1        1 MOL      0.048004
     69 N8          1.3500    5.1480   -2.5640 n         1 MOL     -0.603154
     70 C22         0.9540    5.3530   -1.1210 c3        1 MOL     -0.153225
     71 C23        -0.2190    4.4640   -0.5870 c         1 MOL      0.633494
     72 O13        -1.1200    4.2100   -1.3760 o         1 MOL     -0.489033
     73 C24         0.7260    6.8690   -0.7880 c3        1 MOL      0.354097
     74 C25         2.0940    7.5970   -0.8550 c3        1 MOL     -0.367461
     75 O14        -0.1420    7.5390   -1.6780 oh        1 MOL     -0.567147
     76 H29         1.0620    5.9220   -3.1490 hn        1 MOL      0.375105
     77 H30         1.7870    4.9930   -0.5090 h1        1 MOL      0.052199
     78 H31         0.3580    6.9990    0.2300 h1        1 MOL      0.032952
     79 H32        -0.9330    7.6550   -1.1560 ho        1 MOL      0.398608
     80 H33         2.8780    6.9940   -0.3930 hc        1 MOL      0.093197
     81 H34         2.4090    7.7620   -1.8850 hc        1 MOL      0.093197
     82 H35         2.1000    8.6020   -0.4370 hc        1 MOL      0.093197
     83 N9         -0.0470    3.9160    0.5800 n         1 MOL     -0.564218
     84 C26        -1.1240    2.9610    1.0290 c3        1 MOL      0.037780
     85 C27        -2.1980    3.6180    1.9630 c         1 MOL      0.609353
     86 O15        -1.8450    4.1870    2.9780 o         1 MOL     -0.606966
     87 C28        -0.6250    1.6220    1.5910 c3        1 MOL      0.171199
     88 C29         0.1380    0.9020    0.4090 c3        1 MOL     -0.253771
     89 C30        -1.7210    0.7320    2.1640 c3        1 MOL     -0.236772
     90 C31         0.9770   -0.2710    0.9030 c3        1 MOL      0.019039
     91 H36         0.8410    3.9080    1.0550 hn        1 MOL      0.288535
     92 H37        -1.6670    2.6410    0.1430 h1        1 MOL      0.101033
     93 H38         0.0810    1.8270    2.3970 hc        1 MOL      0.011368
     94 H39         0.9440    1.4430   -0.0790 hc        1 MOL      0.086952
     95 H40        -0.5990    0.5040   -0.2940 hc        1 MOL      0.086952
     96 H41        -1.9000    1.1270    3.1590 hc        1 MOL      0.074559
     97 H42        -2.6090    0.6550    1.5400 hc        1 MOL      0.074559
     98 H43        -1.2800   -0.2270    2.4260 hc        1 MOL      0.074559
     99 H44         0.3410   -1.0890    1.2400 hc        1 MOL     -0.000116
    100 H45         1.5880   -0.6830    0.1020 hc        1 MOL     -0.000116
    101 H46         1.5590    0.1220    1.7390 hc        1 MOL     -0.000116
    102 N10        -3.5360    3.5180    1.7950 n         1 MOL     -0.492412
    103 C32        -4.2420    2.7970    0.6980 c3        1 MOL     -0.065511
    104 C33        -5.4650    2.0640    1.2260 c         1 MOL      0.794988
    105 O16        -5.3460    1.6100    2.3700 o         1 MOL     -0.647094
    106 C34        -4.5900    3.7620   -0.3780 c3        1 MOL     -0.158875
    107 C35        -5.4210    4.9890   -0.0210 c         1 MOL      0.692890
    108 O17        -6.6590    4.9810   -0.0260 o         1 MOL     -0.722320
    109 O18        -4.8260    6.0160    0.3560 o         1 MOL     -0.722320
    110 H47        -4.2140    3.7920    2.4870 hn        1 MOL      0.353508
    111 H48        -3.5340    2.0510    0.3420 h1        1 MOL      0.049259
    112 H49        -5.0780    3.3520   -1.2540 hc        1 MOL      0.024966
    113 H50        -3.6340    4.0230   -0.8220 hc        1 MOL      0.024966
    114 N11        -6.5110    1.8780    0.4080 n         1 MOL     -0.638672
    115 C36        -7.6070    0.8650    0.7170 c3        1 MOL      0.341655
    116 C37        -8.4220    0.3850   -0.5580 c         1 MOL      0.408110
    117 O19        -8.9120    1.2630   -1.2800 o         1 MOL     -0.547066
    118 C38        -8.5780    1.4190    1.7680 c3        1 MOL     -0.467080
    119 C39        -9.6730    0.4540    2.1880 ca        1 MOL      0.260026
    120 C40       -10.9660    0.6150    1.8230 ca        1 MOL     -0.241666
    121 C41        -9.2300   -0.4590    3.1510 ca        1 MOL     -0.241666
    122 C42       -11.8900   -0.3310    2.3570 ca        1 MOL     -0.060435
    123 C43       -10.1710   -1.4240    3.6370 ca        1 MOL     -0.060435
    124 C44       -11.5210   -1.2460    3.3480 ca        1 MOL     -0.186706
    125 H51        -6.6460    2.3910   -0.4470 hn        1 MOL      0.325401
    126 H52        -7.1260   -0.0280    1.1170 h1        1 MOL     -0.004114
    127 H53        -9.0680    2.2920    1.3430 hc        1 MOL      0.160480
    128 H54        -8.0130    1.7530    2.6390 hc        1 MOL      0.160480
    129 H55       -11.3340    1.3080    1.0810 ha        1 MOL      0.145206
    130 H56        -8.1970   -0.3650    3.4400 ha        1 MOL      0.145206
    131 H57       -12.9370   -0.2870    2.0830 ha        1 MOL      0.083715
    132 H58        -9.9400   -2.0920    4.4560 ha        1 MOL      0.083715
    133 H59       -12.2810   -1.8060    3.8810 ha        1 MOL      0.108357
    134 N12        -8.5400   -0.8570   -0.8930 n         1 MOL     -0.178088
    135 C45        -7.9330   -1.9920   -0.1830 c3        1 MOL      0.335027
    136 C46        -6.3890   -2.1450   -0.3040 c         1 MOL      0.349834
    137 O20        -5.6630   -1.1810   -0.6640 o         1 MOL     -0.545098
    138 C47        -8.6300   -3.2410   -0.8760 c3        1 MOL     -0.234450
    139 C48       -10.0040   -2.7810   -1.3540 c3        1 MOL      0.107224
    140 C49        -9.6560   -1.3420   -1.6860 c3        1 MOL      0.154087
    141 H60        -8.2520   -1.8600    0.8500 h1        1 MOL     -0.100583
    142 H61        -8.0260   -3.5330   -1.7300 hc        1 MOL      0.075136
    143 H62        -8.7790   -4.0620   -0.1730 hc        1 MOL      0.075136
    144 H63       -10.4310   -3.2050   -2.2520 hc        1 MOL     -0.024919
    145 H64       -10.7450   -2.8860   -0.5690 hc        1 MOL     -0.024919
    146 H65        -9.4330   -1.2570   -2.7440 h1        1 MOL     -0.004301
    147 H66       -10.6190   -0.8440   -1.5380 h1        1 MOL     -0.004301
    148 N13        -5.8660   -3.3440    0.0020 n         1 MOL     -0.181032
    149 C50        -4.4220   -3.6050    0.1160 c3        1 MOL      0.193593
    150 C51        -3.9340   -4.6380    1.1670 c         1 MOL      0.374897
    151 O21        -3.0400   -5.4880    0.8920 o         1 MOL     -0.520085
    152 C52        -3.9350   -3.9840   -1.3320 c3        1 MOL     -0.243554
    153 C53        -4.3810   -5.3210   -1.9680 c3        1 MOL     -0.089486
    154 C54        -5.7670   -5.3440   -2.6100 c         1 MOL      0.732097
    155 O22        -6.7320   -5.9860   -2.0900 o         1 MOL     -0.742243
    156 O23        -5.8800   -4.8210   -3.7720 o         1 MOL     -0.742243
    157 H67        -6.4620   -4.0480    0.4130 hn        1 MOL      0.130255
    158 H68        -4.0020   -2.6660    0.4750 h1        1 MOL      0.026131
    159 H69        -2.8670   -3.8290   -1.2520 hc        1 MOL      0.086559
    160 H70        -4.2910   -3.1310   -1.9020 hc        1 MOL      0.086559
    161 H71        -4.1750   -6.1460   -1.2910 hc        1 MOL      0.000818
    162 H72        -3.7260   -5.5670   -2.8050 hc        1 MOL      0.000818
    163 N14        -4.5500   -4.6710    2.3570 n         1 MOL     -0.322077
    164 C55        -5.2090   -3.5850    3.1150 c3        1 MOL     -0.061796
    165 H73        -5.5720   -2.8270    2.4220 h1        1 MOL      0.061463
    166 H74        -6.0480   -3.9930    3.6790 h1        1 MOL      0.061463
    167 H75        -4.4920   -3.1350    3.8020 h1        1 MOL      0.061463
    168 H76        -4.4480   -5.5630    2.8250 hn        1 MOL      0.258857
    169 Ca1         5.7840    1.2030   -0.5880 Ca        1 MOL      1.730820
    170 O24         5.3990    1.6920   -3.3610 oh        1 MOL     -0.786403
    171 H77         4.7790    1.1820   -3.8870 ho        1 MOL      0.399505
    172 H78         5.9530    2.1380   -4.0020 ho        1 MOL      0.399505
    173 O25         8.0900    2.2530   -1.7810 oh        1 MOL     -0.786403
    174 H79         8.6360    1.6840   -2.3240 ho        1 MOL      0.399505
    175 H80         8.7080    2.6640   -1.1800 ho        1 MOL      0.399505
    176 O26         3.5810    2.0840    0.9930 oh        1 MOL     -0.786403
    177 H81         3.7130    1.4880    1.7290 ho        1 MOL      0.399505
    178 H82         3.1020    2.8250    1.3680 ho        1 MOL      0.399505
    179 O27         5.3350    3.8660   -0.6900 oh        1 MOL     -0.786403
    180 H83         5.3020    4.2890    0.1730 ho        1 MOL      0.399505
    181 H84         5.5190    4.5810   -1.3010 ho        1 MOL      0.399505
@<TRIPOS>BOND
     1    1    2 1   
     2    1    4 1   
     3    1    5 1   
     4    1    6 1   
     5    2    3 2   
     6    2    7 1   
     7    7    8 1   
     8    7   15 1   
     9    8    9 1   
    10    8   11 1   
    11    8   16 1   
    12    9   10 2   
    13    9   19 1   
    14   11   12 1   
    15   11   17 1   
    16   11   18 1   
    17   12   13 1   
    18   12   14 1   
    19   19   20 1   
    20   19   24 1   
    21   20   21 1   
    22   20   23 1   
    23   20   25 1   
    24   21   22 2   
    25   21   29 1   
    26   23   26 1   
    27   23   27 1   
    28   23   28 1   
    29   29   30 1   
    30   29   37 1   
    31   30   31 1   
    32   30   33 1   
    33   30   38 1   
    34   31   32 2   
    35   31   41 1   
    36   33   34 1   
    37   33   39 1   
    38   33   40 1   
    39   34   35 1   
    40   34   36 1   
    41   41   42 1   
    42   41   45 1   
    43   42   43 1   
    44   42   46 1   
    45   42   47 1   
    46   43   44 2   
    47   43   48 1   
    48   48   49 1   
    49   48   56 1   
    50   49   50 1   
    51   49   52 1   
    52   49   57 1   
    53   50   51 2   
    54   50   62 1   
    55   52   53 1   
    56   52   58 1   
    57   52   59 1   
    58   53   54 1   
    59   53   55 2   
    60   54   60 1   
    61   54   61 1   
    62   62   63 1   
    63   62   66 1   
    64   63   64 1   
    65   63   67 1   
    66   63   68 1   
    67   64   65 2   
    68   64   69 1   
    69   69   70 1   
    70   69   76 1   
    71   70   71 1   
    72   70   73 1   
    73   70   77 1   
    74   71   72 2   
    75   71   83 1   
    76   73   74 1   
    77   73   75 1   
    78   73   78 1   
    79   74   80 1   
    80   74   81 1   
    81   74   82 1   
    82   75   79 1   
    83   83   84 1   
    84   83   91 1   
    85   84   85 1   
    86   84   87 1   
    87   84   92 1   
    88   85   86 2   
    89   85  102 1   
    90   87   88 1   
    91   87   89 1   
    92   87   93 1   
    93   88   90 1   
    94   88   94 1   
    95   88   95 1   
    96   89   96 1   
    97   89   97 1   
    98   89   98 1   
    99   90   99 1   
   100   90  100 1   
   101   90  101 1   
   102  102  103 1   
   103  102  110 1   
   104  103  104 1   
   105  103  106 1   
   106  103  111 1   
   107  104  105 2   
   108  104  114 1   
   109  106  107 1   
   110  106  112 1   
   111  106  113 1   
   112  107  108 1   
   113  107  109 1   
   114  114  115 1   
   115  114  125 1   
   116  115  116 1   
   117  115  118 1   
   118  115  126 1   
   119  116  117 2   
   120  116  134 1   
   121  118  119 1   
   122  118  127 1   
   123  118  128 1   
   124  119  120 ar  
   125  119  121 ar  
   126  120  122 ar  
   127  120  129 1   
   128  121  123 ar  
   129  121  130 1   
   130  122  124 ar  
   131  122  131 1   
   132  123  124 ar  
   133  123  132 1   
   134  124  133 1   
   135  134  135 1   
   136  134  140 1   
   137  135  136 1   
   138  135  138 1   
   139  135  141 1   
   140  136  137 2   
   141  136  148 1   
   142  138  139 1   
   143  138  142 1   
   144  138  143 1   
   145  139  140 1   
   146  139  144 1   
   147  139  145 1   
   148  140  146 1   
   149  140  147 1   
   150  148  149 1   
   151  148  157 1   
   152  149  150 1   
   153  149  152 1   
   154  149  158 1   
   155  150  151 2   
   156  150  163 1   
   157  152  153 1   
   158  152  159 1   
   159  152  160 1   
   160  153  154 1   
   161  153  161 1   
   162  153  162 1   
   163  154  155 1   
   164  154  156 1   
   165  163  164 1   
   166  163  168 1   
   167  164  165 1   
   168  164  166 1   
   169  164  167 1   
   170  170  171 1   
   171  170  172 1   
   172  173  174 1   
   173  173  175 1   
   174  176  177 1   
   175  176  178 1   
   176  179  180 1   
   177  179  181 1   
@<TRIPOS>SUBSTRUCTURE
     1 MOL         1 TEMP              0 ****  ****    0 ROOT
