@<TRIPOS>MOLECULE
MOL
  178   175     1     0     0
SMALL
resp


@<TRIPOS>ATOM
      1 C1          2.2960   -1.6020    5.0940 c3        1 MOL     -0.262949
      2 C2          3.4070   -1.0480    4.2150 c         1 MOL      0.598103
      3 O1          3.3270    0.0290    3.6710 o         1 MOL     -0.546932
      4 H1          1.3360   -1.2200    4.7480 hc        1 MOL      0.062362
      5 H2          2.2950   -2.6910    5.0370 hc        1 MOL      0.062362
      6 H3          2.4590   -1.2910    6.1260 hc        1 MOL      0.062362
      7 N1          4.5460   -1.7500    4.2150 n         1 MOL     -0.350259
      8 C3          5.7830   -1.3510    3.4240 c3        1 MOL      0.094980
      9 C4          5.8070   -1.9210    2.0080 c         1 MOL      0.608675
     10 O2          6.6460   -1.5880    1.1870 o         1 MOL     -0.540056
     11 C5          7.1540   -1.6700    4.0650 c3        1 MOL     -0.251229
     12 C6          7.1550   -1.1090    5.4900 c         1 MOL      0.729125
     13 O3          7.2530   -1.9260    6.4140 o         1 MOL     -0.724940
     14 O4          7.0530    0.0970    5.6720 o         1 MOL     -0.724940
     15 H4          4.6800   -2.5210    4.8450 hn        1 MOL      0.244961
     16 H5          5.7710   -0.2560    3.4160 h1        1 MOL      0.066981
     17 H6          7.8860   -1.2230    3.3970 hc        1 MOL      0.038168
     18 H7          7.2590   -2.7560    4.0050 hc        1 MOL      0.038168
     19 N2          5.0060   -2.9950    1.7680 n         1 MOL     -0.731645
     20 C7          4.8530   -3.8960    0.5820 c3        1 MOL      0.531771
     21 C8          4.5660   -3.2160   -0.7550 c         1 MOL      0.415545
     22 O5          3.4610   -3.2760   -1.2530 o         1 MOL     -0.580288
     23 C9          5.9050   -4.9760    0.6670 c3        1 MOL     -0.322218
     24 H8          4.4350   -3.2610    2.5590 hn        1 MOL      0.278066
     25 H9          3.9530   -4.4930    0.7210 h1        1 MOL     -0.014499
     26 H10         5.6410   -5.8060    0.0180 hc        1 MOL      0.079114
     27 H11         6.8460   -4.4830    0.4180 hc        1 MOL      0.079114
     28 H12         5.9800   -5.3980    1.6710 hc        1 MOL      0.079114
     29 N3          5.6140   -2.5980   -1.3230 n         1 MOL     -0.274519
     30 C10         5.5090   -1.8500   -2.5870 c3        1 MOL     -0.011013
     31 C11         5.9600   -0.3740   -2.4370 c         1 MOL      0.503745
     32 O6          6.0580    0.4230   -3.3910 o         1 MOL     -0.577335
     33 C12         6.1950   -2.6010   -3.7480 c3        1 MOL     -0.331457
     34 C13         6.0510   -4.1210   -3.7790 c         1 MOL      0.805459
     35 O7          7.0080   -4.8050   -3.3910 o         1 MOL     -0.727008
     36 O8          4.9720   -4.6480   -4.0880 o         1 MOL     -0.727008
     37 H13         6.5020   -2.5890   -0.8340 hn        1 MOL      0.279707
     38 H14         4.4720   -1.5630   -2.7750 h1        1 MOL      0.170965
     39 H15         7.2750   -2.4270   -3.8150 hc        1 MOL      0.043181
     40 H16         5.6360   -2.3080   -4.6320 hc        1 MOL      0.043181
     41 N4          6.0950    0.0960   -1.2130 n         1 MOL     -0.178643
     42 C14         6.3560    1.4340   -0.7710 c3        1 MOL      0.040682
     43 C15         5.1930    2.4160   -1.0260 c         1 MOL      0.497139
     44 O9          5.4650    3.6040   -1.3010 o         1 MOL     -0.563801
     45 H17         6.0660   -0.6240   -0.4980 hn        1 MOL      0.096222
     46 H18         7.2540    1.9340   -1.1360 h1        1 MOL      0.037409
     47 H19         6.4610    1.2850    0.3050 h1        1 MOL      0.037409
     48 N5          3.9380    2.0610   -1.1110 n         1 MOL     -0.210295
     49 C16         2.8420    2.6870   -1.8150 c3        1 MOL     -0.153746
     50 C17         2.5420    4.0560   -1.2890 c         1 MOL      0.638411
     51 O10         2.3410    4.2010   -0.1210 o         1 MOL     -0.532827
     52 C18         1.6920    1.7500   -1.8740 c3        1 MOL     -0.353354
     53 C19         1.8520    0.5780   -2.7950 c         1 MOL      0.624345
     54 N6          1.7820    0.8030   -4.1090 n         1 MOL     -0.575856
     55 O11         2.2720   -0.5240   -2.4460 o         1 MOL     -0.686999
     56 H20         3.7270    1.2080   -0.6070 hn        1 MOL      0.223015
     57 H21         3.1850    2.8200   -2.8420 h1        1 MOL      0.061481
     58 H22         0.7790    2.2910   -2.0690 hc        1 MOL      0.184628
     59 H23         1.6620    1.3350   -0.8580 hc        1 MOL      0.184628
     60 H24         1.3670    1.6770   -4.4040 hn        1 MOL      0.284321
     61 H25         1.9540    0.0720   -4.7780 hn        1 MOL      0.284321
     62 N7          2.6660    5.0530   -2.1730 n         1 MOL     -0.313022
     63 C20         2.5510    6.4290   -1.7790 c3        1 MOL     -0.269898
     64 C21         1.0640    6.9170   -1.7900 c         1 MOL      0.602353
     65 O12         0.3580    6.5190   -2.7300 o         1 MOL     -0.524133
     66 H26         3.1340    4.8330   -3.0350 hn        1 MOL      0.278933
     67 H27         3.0710    7.1200   -2.4450 h1        1 MOL      0.127367
     68 H28         2.8400    6.4230   -0.7290 h1        1 MOL      0.127367
     69 N8          0.5740    7.5720   -0.6980 n         1 MOL     -0.610124
     70 C22        -0.8140    8.0100   -0.5740 c3        1 MOL     -0.053648
     71 C23        -1.6970    7.0230   -0.0100 c         1 MOL      0.488879
     72 O13        -2.8030    7.3390    0.4210 o         1 MOL     -0.581677
     73 C24        -0.8540    9.3510    0.1530 c3        1 MOL      0.522049
     74 C25        -0.4690    9.4630    1.5460 c3        1 MOL     -0.307500
     75 O14        -0.1650   10.3860   -0.5530 oh        1 MOL     -0.660169
     76 H29         1.2860    7.9460   -0.0870 hn        1 MOL      0.314309
     77 H30        -1.1360    8.2310   -1.5920 h1        1 MOL      0.118993
     78 H31        -1.9260    9.5270    0.0770 h1        1 MOL     -0.004585
     79 H32         0.7730   10.1830   -0.5110 ho        1 MOL      0.372144
     80 H33         0.4730    8.9330    1.6080 hc        1 MOL      0.069373
     81 H34        -0.4340   10.4830    1.9470 hc        1 MOL      0.069373
     82 H35        -1.2200    9.0140    2.1990 hc        1 MOL      0.069373
     83 N9         -1.3280    5.7830    0.0730 n         1 MOL     -0.217263
     84 C26        -1.9060    4.7180    0.8590 c3        1 MOL     -0.068702
     85 C27        -1.9450    3.3860    0.0090 c         1 MOL      0.509910
     86 O15        -1.4190    3.4100   -1.1100 o         1 MOL     -0.449641
     87 C28        -1.2460    4.5150    2.1990 c3        1 MOL      0.323425
     88 C29         0.2200    4.1740    2.2470 c3        1 MOL     -0.252253
     89 C30        -1.5980    5.6980    3.0890 c3        1 MOL     -0.211510
     90 C31         0.7540    3.5380    3.5890 c3        1 MOL     -0.138430
     91 H36        -0.5740    5.4840   -0.5370 hn        1 MOL      0.184160
     92 H37        -2.9610    4.9450    1.0550 h1        1 MOL      0.081913
     93 H38        -1.7480    3.6910    2.7190 hc        1 MOL     -0.050829
     94 H39         0.7520    5.0950    2.0100 hc        1 MOL      0.097379
     95 H40         0.3920    3.3950    1.5040 hc        1 MOL      0.097379
     96 H41        -1.5220    5.4040    4.1380 hc        1 MOL      0.036502
     97 H42        -0.8590    6.4900    3.0060 hc        1 MOL      0.036502
     98 H43        -2.6490    5.9560    2.9540 hc        1 MOL      0.036502
     99 H44         1.8050    3.2270    3.5800 hc        1 MOL      0.056052
    100 H45         0.4670    4.2610    4.3480 hc        1 MOL      0.056052
    101 H46         0.2630    2.5990    3.8490 hc        1 MOL      0.056052
    102 N10        -2.5580    2.2860    0.5240 n         1 MOL     -0.700345
    103 C32        -2.3620    0.9830   -0.1050 c3        1 MOL      0.352901
    104 C33        -3.5600    0.0230   -0.2330 c         1 MOL      0.585376
    105 O16        -3.3840   -1.1470   -0.2500 o         1 MOL     -0.460159
    106 C34        -1.1840    0.1770    0.5350 c3        1 MOL     -0.286382
    107 C35        -0.4560   -0.7330   -0.3580 c         1 MOL      0.721726
    108 O17         0.6390   -1.2110   -0.0220 o         1 MOL     -0.754626
    109 O18        -0.7980   -0.9750   -1.5640 o         1 MOL     -0.754626
    110 H47        -2.9820    2.3110    1.4360 hn        1 MOL      0.311415
    111 H48        -2.2360    1.1880   -1.1660 h1        1 MOL     -0.004272
    112 H49        -1.6740   -0.4110    1.3160 hc        1 MOL      0.085748
    113 H50        -0.4460    0.8340    0.9960 hc        1 MOL      0.085748
    114 N11        -4.7360    0.5930   -0.4000 n         1 MOL     -0.550151
    115 C36        -5.9700   -0.0960   -0.8270 c3        1 MOL      0.163808
    116 C37        -6.2960   -1.2630    0.1720 c         1 MOL      0.297498
    117 O19        -6.4380   -1.1080    1.4110 o         1 MOL     -0.497293
    118 C38        -7.1430    0.8930   -0.9160 c3        1 MOL     -0.093656
    119 C39        -8.5480    0.2680   -1.0220 ca        1 MOL      0.021207
    120 C40        -9.0710   -0.0200   -2.3070 ca        1 MOL     -0.178518
    121 C41        -9.3250   -0.1410    0.0990 ca        1 MOL     -0.178518
    122 C42       -10.3360   -0.5190   -2.4490 ca        1 MOL     -0.009445
    123 C43       -10.6640   -0.6530   -0.0290 ca        1 MOL     -0.009445
    124 C44       -11.1460   -0.8230   -1.3680 ca        1 MOL     -0.237340
    125 H51        -4.7730    1.6040   -0.3820 hn        1 MOL      0.285369
    126 H52        -5.7950   -0.5190   -1.8210 h1        1 MOL      0.026885
    127 H53        -6.9910    1.4820   -1.8190 hc        1 MOL      0.069283
    128 H54        -7.0550    1.6810   -0.1750 hc        1 MOL      0.069283
    129 H55        -8.4900    0.1510   -3.2030 ha        1 MOL      0.114302
    130 H56        -8.8730    0.0840    1.0490 ha        1 MOL      0.114302
    131 H57       -10.7370   -0.6530   -3.4450 ha        1 MOL      0.089834
    132 H58       -11.3000   -0.7770    0.8270 ha        1 MOL      0.089834
    133 H59       -12.1520   -1.1780   -1.4980 ha        1 MOL      0.129377
    134 N12        -6.3690   -2.5370   -0.3250 n         1 MOL      0.068327
    135 C45        -6.8930   -3.6360    0.5400 c3        1 MOL     -0.005626
    136 C46        -5.8200   -4.0790    1.5460 c         1 MOL      0.288783
    137 O20        -6.1690   -4.7330    2.5290 o         1 MOL     -0.525452
    138 C47        -7.4150   -4.6530   -0.4550 c3        1 MOL     -0.038807
    139 C48        -6.6280   -4.4040   -1.7270 c3        1 MOL     -0.091861
    140 C49        -6.2400   -2.8970   -1.7220 c3        1 MOL      0.037864
    141 H60        -7.7640   -3.3380    1.1180 h1        1 MOL      0.079710
    142 H61        -7.2810   -5.6700   -0.1050 hc        1 MOL      0.035779
    143 H62        -8.4930   -4.4830   -0.5420 hc        1 MOL      0.035779
    144 H63        -5.6990   -4.9810   -1.7680 hc        1 MOL      0.030873
    145 H64        -7.3020   -4.6000   -2.5640 hc        1 MOL      0.030873
    146 H65        -5.2890   -2.7070   -2.2070 h1        1 MOL      0.015673
    147 H66        -7.0360   -2.3680   -2.2540 h1        1 MOL      0.015673
    148 N13        -4.5810   -3.6920    1.4200 n         1 MOL     -0.036655
    149 C50        -3.5690   -3.9480    2.4370 c3        1 MOL     -0.017821
    150 C51        -3.6710   -2.9950    3.6330 c         1 MOL      0.310522
    151 O21        -3.4690   -3.4200    4.8100 o         1 MOL     -0.521511
    152 C52        -2.1540   -3.8350    1.7780 c3        1 MOL      0.043111
    153 C53        -1.9260   -5.0300    0.8210 c3        1 MOL     -0.331479
    154 C54        -0.8830   -4.6350   -0.2560 c         1 MOL      0.794410
    155 O22         0.3170   -4.6390    0.0670 o         1 MOL     -0.750595
    156 O23        -1.1870   -4.1060   -1.3320 o         1 MOL     -0.750595
    157 H67        -4.2930   -3.2200    0.5680 hn        1 MOL      0.155900
    158 H68        -3.6910   -4.9420    2.8770 h1        1 MOL      0.092158
    159 H69        -1.3700   -3.9610    2.5250 hc        1 MOL      0.036374
    160 H70        -2.1070   -2.8770    1.2650 hc        1 MOL      0.036374
    161 H71        -2.8100   -5.3820    0.2890 hc        1 MOL      0.058482
    162 H72        -1.5840   -5.8190    1.4940 hc        1 MOL      0.058482
    163 N14        -4.2140   -1.8480    3.2930 n         1 MOL     -0.000327
    164 C55        -4.3890   -0.6970    4.1900 c3        1 MOL     -0.302691
    165 H73        -5.1230   -0.9440    4.9570 h1        1 MOL      0.110258
    166 H74        -3.4370   -0.4580    4.6640 h1        1 MOL      0.110258
    167 H75        -4.7370    0.1620    3.6160 h1        1 MOL      0.110258
    168 H76        -4.4090   -1.6520    2.3160 hn        1 MOL      0.086469
    169 Ca1         0.9900   -2.9790   -1.9030 Ca        1 MOL      1.715842
    170 O24         1.3820   -5.5690   -2.4860 oh        1 MOL     -0.781203
    171 H77         2.2640   -5.8890   -2.6550 ho        1 MOL      0.380886
    172 H78         0.8430   -5.9910   -3.1620 ho        1 MOL      0.380886
    173 O25         2.6620   -3.3810   -4.0080 oh        1 MOL     -0.781203
    174 H79         2.7210   -2.5680   -4.5090 ho        1 MOL      0.380886
    175 H80         3.5560   -3.6990   -3.9660 ho        1 MOL      0.380886
    176 O26        -0.3830   -2.7850   -4.2830 oh        1 MOL     -0.781203
    177 H81         0.0450   -3.1650   -5.0480 ho        1 MOL      0.380886
    178 H82        -0.6430   -1.9070   -4.5610 ho        1 MOL      0.380886
@<TRIPOS>BOND
     1    1    2 1   
     2    1    4 1   
     3    1    5 1   
     4    1    6 1   
     5    2    3 2   
     6    2    7 1   
     7    7    8 1   
     8    7   15 1   
     9    8    9 1   
    10    8   11 1   
    11    8   16 1   
    12    9   10 2   
    13    9   19 1   
    14   11   12 1   
    15   11   17 1   
    16   11   18 1   
    17   12   13 1   
    18   12   14 1   
    19   19   20 1   
    20   19   24 1   
    21   20   21 1   
    22   20   23 1   
    23   20   25 1   
    24   21   22 2   
    25   21   29 1   
    26   23   26 1   
    27   23   27 1   
    28   23   28 1   
    29   29   30 1   
    30   29   37 1   
    31   30   31 1   
    32   30   33 1   
    33   30   38 1   
    34   31   32 2   
    35   31   41 1   
    36   33   34 1   
    37   33   39 1   
    38   33   40 1   
    39   34   35 1   
    40   34   36 1   
    41   41   42 1   
    42   41   45 1   
    43   42   43 1   
    44   42   46 1   
    45   42   47 1   
    46   43   44 2   
    47   43   48 1   
    48   48   49 1   
    49   48   56 1   
    50   49   50 1   
    51   49   52 1   
    52   49   57 1   
    53   50   51 2   
    54   50   62 1   
    55   52   53 1   
    56   52   58 1   
    57   52   59 1   
    58   53   54 1   
    59   53   55 2   
    60   54   60 1   
    61   54   61 1   
    62   62   63 1   
    63   62   66 1   
    64   63   64 1   
    65   63   67 1   
    66   63   68 1   
    67   64   65 2   
    68   64   69 1   
    69   69   70 1   
    70   69   76 1   
    71   70   71 1   
    72   70   73 1   
    73   70   77 1   
    74   71   72 2   
    75   71   83 1   
    76   73   74 1   
    77   73   75 1   
    78   73   78 1   
    79   74   80 1   
    80   74   81 1   
    81   74   82 1   
    82   75   79 1   
    83   83   84 1   
    84   83   91 1   
    85   84   85 1   
    86   84   87 1   
    87   84   92 1   
    88   85   86 2   
    89   85  102 1   
    90   87   88 1   
    91   87   89 1   
    92   87   93 1   
    93   88   90 1   
    94   88   94 1   
    95   88   95 1   
    96   89   96 1   
    97   89   97 1   
    98   89   98 1   
    99   90   99 1   
   100   90  100 1   
   101   90  101 1   
   102  102  103 1   
   103  102  110 1   
   104  103  104 1   
   105  103  106 1   
   106  103  111 1   
   107  104  105 2   
   108  104  114 1   
   109  106  107 1   
   110  106  112 1   
   111  106  113 1   
   112  107  108 1   
   113  107  109 1   
   114  114  115 1   
   115  114  125 1   
   116  115  116 1   
   117  115  118 1   
   118  115  126 1   
   119  116  117 2   
   120  116  134 1   
   121  118  119 1   
   122  118  127 1   
   123  118  128 1   
   124  119  120 ar  
   125  119  121 ar  
   126  120  122 ar  
   127  120  129 1   
   128  121  123 ar  
   129  121  130 1   
   130  122  124 ar  
   131  122  131 1   
   132  123  124 ar  
   133  123  132 1   
   134  124  133 1   
   135  134  135 1   
   136  134  140 1   
   137  135  136 1   
   138  135  138 1   
   139  135  141 1   
   140  136  137 2   
   141  136  148 1   
   142  138  139 1   
   143  138  142 1   
   144  138  143 1   
   145  139  140 1   
   146  139  144 1   
   147  139  145 1   
   148  140  146 1   
   149  140  147 1   
   150  148  149 1   
   151  148  157 1   
   152  149  150 1   
   153  149  152 1   
   154  149  158 1   
   155  150  151 2   
   156  150  163 1   
   157  152  153 1   
   158  152  159 1   
   159  152  160 1   
   160  153  154 1   
   161  153  161 1   
   162  153  162 1   
   163  154  155 1   
   164  154  156 1   
   165  163  164 1   
   166  163  168 1   
   167  164  165 1   
   168  164  166 1   
   169  164  167 1   
   170  170  171 1   
   171  170  172 1   
   172  173  174 1   
   173  173  175 1   
   174  176  177 1   
   175  176  178 1   
@<TRIPOS>SUBSTRUCTURE
     1 MOL         1 TEMP              0 ****  ****    0 ROOT
