@<TRIPOS>MOLECULE
MOL
  181   177     1     0     0
SMALL
resp


@<TRIPOS>ATOM
      1 C1         -3.8370    0.5010   -3.7390 c3        1 MOL     -0.305265
      2 C2         -5.0450    0.8040   -2.7980 c         1 MOL      0.522054
      3 O1         -4.7810    1.3680   -1.7250 o         1 MOL     -0.520209
      4 H1         -3.3310    1.4330   -3.9920 hc        1 MOL      0.085747
      5 H2         -3.1380   -0.1650   -3.2330 hc        1 MOL      0.085747
      6 H3         -4.1960    0.0260   -4.6510 hc        1 MOL      0.085747
      7 N1         -6.2800    0.5590   -3.1660 n         1 MOL     -0.481661
      8 C3         -7.4890    0.8010   -2.3370 c3        1 MOL      0.178969
      9 C4         -7.2930    0.2130   -0.9200 c         1 MOL      0.645133
     10 O2         -6.7270   -0.8700   -0.8010 o         1 MOL     -0.581826
     11 C5         -8.7020    0.0980   -2.9700 c3        1 MOL     -0.128978
     12 C6        -10.0790    0.3590   -2.4550 c         1 MOL      0.768815
     13 O3        -10.3060    1.4610   -1.9250 o         1 MOL     -0.744540
     14 O4        -10.9840   -0.4730   -2.6810 o         1 MOL     -0.744540
     15 H4         -6.3940    0.0100   -4.0130 hn        1 MOL      0.282145
     16 H5         -7.7440    1.8650   -2.3570 h1        1 MOL      0.020373
     17 H6         -8.5120   -0.9620   -2.8280 hc        1 MOL     -0.021683
     18 H7         -8.6820    0.3470   -4.0340 hc        1 MOL     -0.021683
     19 N2         -7.7310    0.9620    0.0710 n         1 MOL     -0.661850
     20 C7         -7.5960    0.6460    1.4870 c3        1 MOL      0.425713
     21 C8         -6.1220    0.4030    1.9460 c         1 MOL      0.482016
     22 O5         -5.2370    0.9210    1.3100 o         1 MOL     -0.479088
     23 C9         -8.1440    1.8200    2.3650 c3        1 MOL     -0.460023
     24 H8         -8.2730    1.8100   -0.0850 hn        1 MOL      0.320844
     25 H9         -8.1760   -0.2460    1.7110 h1        1 MOL     -0.025329
     26 H10        -9.2140    2.0160    2.2280 hc        1 MOL      0.121416
     27 H11        -7.9220    1.5680    3.4020 hc        1 MOL      0.121416
     28 H12        -7.6050    2.7390    2.1660 hc        1 MOL      0.121416
     29 N3         -5.8280   -0.3240    3.0560 n         1 MOL     -0.586714
     30 C10        -4.5210   -0.8480    3.3920 c3        1 MOL      0.225407
     31 C11        -3.8160   -0.1310    4.5340 c         1 MOL      0.546679
     32 O6         -4.3590    0.2850    5.5510 o         1 MOL     -0.551683
     33 C12        -4.5680   -2.3400    3.6960 c3        1 MOL     -0.043658
     34 C13        -3.1450   -2.9460    3.7870 c         1 MOL      0.533017
     35 O7         -2.6470   -3.1900    4.8760 o         1 MOL     -0.646876
     36 O8         -2.4450   -3.0000    2.7300 o         1 MOL     -0.646876
     37 H13        -6.6220   -0.6180    3.6050 hn        1 MOL      0.266683
     38 H14        -3.9280   -0.7540    2.4790 h1        1 MOL      0.007500
     39 H15        -5.1250   -2.7920    2.8750 hc        1 MOL     -0.017827
     40 H16        -5.0220   -2.5120    4.6690 hc        1 MOL     -0.017827
     41 N4         -2.4770    0.0590    4.4470 n         1 MOL     -0.363124
     42 C14        -1.6870    0.5290    5.6000 c3        1 MOL     -0.023550
     43 C15        -0.6770    1.5940    5.3060 c         1 MOL      0.547926
     44 O9         -0.3980    2.4390    6.1210 o         1 MOL     -0.572895
     45 H17        -1.9720   -0.0790    3.5850 hn        1 MOL      0.203186
     46 H18        -1.1160   -0.3160    5.9900 h1        1 MOL      0.086339
     47 H19        -2.3010    0.8300    6.4510 h1        1 MOL      0.086339
     48 N5          0.0590    1.4470    4.2530 n         1 MOL     -0.437699
     49 C16         1.2110    2.2210    3.8500 c3        1 MOL     -0.013145
     50 C17         0.8540    3.4040    3.0200 c         1 MOL      0.625215
     51 O10         0.0510    3.3570    2.1360 o         1 MOL     -0.505462
     52 C18         2.3560    1.3540    3.2750 c3        1 MOL     -0.198336
     53 C19         2.8140    0.3100    4.2090 c         1 MOL      0.746096
     54 N6          2.1980   -0.8710    4.2000 n         1 MOL     -0.805637
     55 O11         3.6490    0.5850    5.0570 o         1 MOL     -0.594638
     56 H20        -0.0740    0.6430    3.6530 hn        1 MOL      0.309512
     57 H21         1.6940    2.6300    4.7470 h1        1 MOL      0.096438
     58 H22         3.1370    2.0700    3.0080 hc        1 MOL      0.036951
     59 H23         1.9760    0.8980    2.3500 hc        1 MOL      0.036951
     60 H24         1.4170   -1.0290    3.5820 hn        1 MOL      0.380711
     61 H25         2.4880   -1.5780    4.8570 hn        1 MOL      0.380711
     62 N7          1.4210    4.5970    3.3650 n         1 MOL     -0.416578
     63 C20         1.2200    5.8300    2.5220 c3        1 MOL     -0.037421
     64 C21         2.1280    5.7920    1.3420 c         1 MOL      0.609484
     65 O12         3.2420    5.3170    1.5080 o         1 MOL     -0.509499
     66 H26         1.7820    4.6510    4.3010 hn        1 MOL      0.260526
     67 H27         1.2790    6.7660    3.0660 h1        1 MOL      0.064035
     68 H28         0.2310    5.8270    2.0730 h1        1 MOL      0.064035
     69 N8          1.6590    6.4220    0.2190 n         1 MOL     -0.632150
     70 C22         2.5290    6.8060   -0.9060 c3        1 MOL      0.058056
     71 C23         2.7920    5.6700   -1.9370 c         1 MOL      0.405150
     72 O13         3.9290    5.6100   -2.3570 o         1 MOL     -0.544982
     73 C24         2.2270    8.1290   -1.5600 c3        1 MOL      0.362178
     74 C25         0.9980    8.1180   -2.4890 c3        1 MOL     -0.359099
     75 O14         2.1010    9.0260   -0.4910 oh        1 MOL     -0.600952
     76 H29         0.6630    6.5990    0.1630 hn        1 MOL      0.341251
     77 H30         3.5300    6.8990   -0.4900 h1        1 MOL      0.099791
     78 H31         3.1860    8.3960   -2.0020 h1        1 MOL      0.043408
     79 H32         1.3130    8.8160    0.0160 ho        1 MOL      0.350802
     80 H33         0.0960    8.0970   -1.8830 hc        1 MOL      0.081973
     81 H34         0.9870    9.0510   -3.0520 hc        1 MOL      0.081973
     82 H35         0.9340    7.2650   -3.1600 hc        1 MOL      0.081973
     83 N9          1.8200    4.7920   -2.2660 n         1 MOL     -0.021715
     84 C26         2.0530    3.5160   -2.8840 c3        1 MOL     -0.360218
     85 C27         1.1660    2.4520   -2.2300 c         1 MOL      0.459134
     86 O15        -0.0090    2.6160   -1.9280 o         1 MOL     -0.464137
     87 C28         1.8890    3.5390   -4.4420 c3        1 MOL      0.295235
     88 C29         0.5700    4.2700   -4.7710 c3        1 MOL     -0.092520
     89 C30         3.0890    4.0080   -5.1660 c3        1 MOL     -0.171317
     90 C31        -0.0500    4.2440   -6.1680 c3        1 MOL     -0.051568
     91 H36         0.8830    5.0030   -1.9490 hn        1 MOL      0.137157
     92 H37         3.0570    3.2700   -2.5510 h1        1 MOL      0.157568
     93 H38         1.7440    2.4990   -4.7450 hc        1 MOL     -0.023080
     94 H39         0.7200    5.2790   -4.3990 hc        1 MOL      0.056349
     95 H40        -0.2150    3.7770   -4.1920 hc        1 MOL      0.056349
     96 H41         3.1690    5.0790   -4.9580 hc        1 MOL      0.024376
     97 H42         3.9550    3.4520   -4.8110 hc        1 MOL      0.024376
     98 H43         3.0340    3.7820   -6.2320 hc        1 MOL      0.024376
     99 H44         0.2930    3.4410   -6.8210 hc        1 MOL      0.007268
    100 H45        -1.1260    4.1740   -6.0890 hc        1 MOL      0.007268
    101 H46         0.1470    5.2240   -6.6170 hc        1 MOL      0.007268
    102 N10         1.7540    1.2600   -1.9800 n         1 MOL     -0.455200
    103 C32         1.1810    0.1870   -1.1560 c3        1 MOL      0.237480
    104 C33         2.2720   -0.5190   -0.2300 c         1 MOL      0.402731
    105 O16         2.1450   -1.6760    0.1160 o         1 MOL     -0.439388
    106 C34         0.4070   -0.7110   -2.1300 c3        1 MOL     -0.049007
    107 C35        -0.5920   -1.5400   -1.3800 c         1 MOL      0.758824
    108 O17        -1.1630   -2.4200   -2.0570 o         1 MOL     -0.753298
    109 O18        -0.8230   -1.4440   -0.1790 o         1 MOL     -0.753298
    110 H47         2.6990    1.0710   -2.2880 hn        1 MOL      0.246080
    111 H48         0.4410    0.7040   -0.5370 h1        1 MOL      0.040081
    112 H49         1.0610   -1.3870   -2.6770 hc        1 MOL      0.003654
    113 H50        -0.0800   -0.1680   -2.9340 hc        1 MOL      0.003654
    114 N11         3.4210    0.1820    0.0850 n         1 MOL     -0.378735
    115 C36         4.5810   -0.4640    0.6320 c3        1 MOL      0.246132
    116 C37         5.3330   -1.3070   -0.4600 c         1 MOL      0.173477
    117 O19         5.4970   -0.8960   -1.5960 o         1 MOL     -0.505190
    118 C38         5.5340    0.4520    1.3400 c3        1 MOL     -0.193642
    119 C39         6.7500   -0.1440    1.9550 ca        1 MOL      0.164348
    120 C40         6.8100   -0.3510    3.3830 ca        1 MOL     -0.229836
    121 C41         7.8220   -0.4420    1.1160 ca        1 MOL     -0.229836
    122 C42         7.9900   -0.8890    3.9330 ca        1 MOL     -0.052411
    123 C43         9.0100   -0.9880    1.6790 ca        1 MOL     -0.052411
    124 C44         9.1420   -1.1720    3.0580 ca        1 MOL     -0.203367
    125 H51         3.5680    1.1450   -0.1590 hn        1 MOL      0.237454
    126 H52         4.1330   -1.1040    1.3960 h1        1 MOL     -0.003740
    127 H53         5.0640    1.0930    2.0940 hc        1 MOL      0.080714
    128 H54         5.8850    1.1350    0.5750 hc        1 MOL      0.080714
    129 H55         6.0090   -0.1420    4.0660 ha        1 MOL      0.154161
    130 H56         7.7210   -0.3220    0.0490 ha        1 MOL      0.154161
    131 H57         8.0450   -1.1860    4.9620 ha        1 MOL      0.099489
    132 H58         9.8390   -1.2770    1.0510 ha        1 MOL      0.099489
    133 H59        10.0020   -1.6690    3.4760 ha        1 MOL      0.120169
    134 N12         5.6010   -2.6390   -0.2880 n         1 MOL      0.130705
    135 C45         6.1790   -3.5220   -1.2520 c3        1 MOL     -0.017968
    136 C46         5.1900   -4.0850   -2.2960 c         1 MOL      0.233998
    137 O20         5.6010   -4.7530   -3.2350 o         1 MOL     -0.497312
    138 C47         6.8070   -4.6510   -0.4220 c3        1 MOL     -0.047572
    139 C48         5.8200   -4.8370    0.7030 c3        1 MOL      0.099406
    140 C49         5.5940   -3.3300    1.0310 c3        1 MOL     -0.399612
    141 H60         6.9650   -3.0410   -1.8400 h1        1 MOL      0.078220
    142 H61         7.0420   -5.5870   -0.9220 hc        1 MOL      0.030289
    143 H62         7.7350   -4.2560   -0.0040 hc        1 MOL      0.030289
    144 H63         4.9020   -5.3380    0.3960 hc        1 MOL      0.016251
    145 H64         6.1480   -5.4390    1.5550 hc        1 MOL      0.016251
    146 H65         4.6230   -3.1580    1.5000 h1        1 MOL      0.128674
    147 H66         6.4420   -2.9490    1.6050 h1        1 MOL      0.128674
    148 N13         3.8960   -4.0640   -2.0970 n         1 MOL     -0.002747
    149 C50         2.8280   -4.6380   -2.8920 c3        1 MOL     -0.243872
    150 C51         2.6920   -4.1150   -4.3230 c         1 MOL      0.467654
    151 O21         2.5320   -4.9340   -5.2730 o         1 MOL     -0.534117
    152 C52         1.5510   -4.4940   -2.0920 c3        1 MOL      0.131149
    153 C53         1.3520   -5.3490   -0.8560 c3        1 MOL     -0.396038
    154 C54        -0.0680   -5.1670   -0.3050 c         1 MOL      0.846520
    155 O22        -0.3680   -4.5510    0.7120 o         1 MOL     -0.771703
    156 O23        -1.0090   -5.6720   -0.9040 o         1 MOL     -0.771703
    157 H67         3.5920   -3.7170   -1.1980 hn        1 MOL      0.202811
    158 H68         3.0170   -5.6940   -3.0330 h1        1 MOL      0.121465
    159 H69         0.7840   -4.7550   -2.8190 hc        1 MOL      0.033058
    160 H70         1.4190   -3.4290   -1.8730 hc        1 MOL      0.033058
    161 H71         2.1240   -5.2320   -0.1000 hc        1 MOL      0.075186
    162 H72         1.3560   -6.3940   -1.1490 hc        1 MOL      0.075186
    163 N14         2.8290   -2.8030   -4.5260 n         1 MOL     -0.168614
    164 C55         2.7440   -2.1540   -5.8260 c3        1 MOL     -0.347827
    165 H73         3.7340   -2.1270   -6.2830 h1        1 MOL      0.131124
    166 H74         2.0640   -2.7130   -6.4680 h1        1 MOL      0.131124
    167 H75         2.3740   -1.1360   -5.7010 h1        1 MOL      0.131124
    168 H76         2.9750   -2.1830   -3.7440 hn        1 MOL      0.214361
    169 Ca1        -2.5180   -3.3760    0.1660 Ca        1 MOL      1.628767
    170 O24        -3.7790   -1.1520   -0.5040 oh        1 MOL     -0.766453
    171 H77        -4.7210   -1.2990   -0.4280 ho        1 MOL      0.386174
    172 H78        -3.7080   -0.2480   -0.8230 ho        1 MOL      0.386174
    173 O25        -3.4710   -5.7520    1.0420 oh        1 MOL     -0.766453
    174 H79        -3.7490   -5.5380    1.9350 ho        1 MOL      0.386174
    175 H80        -3.7160   -6.6740    0.9370 ho        1 MOL      0.386174
    176 O26        -3.3920   -4.3380   -2.2900 oh        1 MOL     -0.766453
    177 H81        -4.2520   -4.7220   -2.4380 ho        1 MOL      0.386174
    178 H82        -2.9110   -4.5080   -3.0910 ho        1 MOL      0.386174
    179 O27        -5.1830   -3.6550    0.2280 oh        1 MOL     -0.766453
    180 H83        -5.6860   -3.3530   -0.5290 ho        1 MOL      0.386174
    181 H84        -5.6590   -4.4180    0.5470 ho        1 MOL      0.386174
@<TRIPOS>BOND
     1    1    2 1   
     2    1    4 1   
     3    1    5 1   
     4    1    6 1   
     5    2    3 2   
     6    2    7 1   
     7    7    8 1   
     8    7   15 1   
     9    8    9 1   
    10    8   11 1   
    11    8   16 1   
    12    9   10 2   
    13    9   19 1   
    14   11   12 1   
    15   11   17 1   
    16   11   18 1   
    17   12   13 1   
    18   12   14 1   
    19   19   20 1   
    20   19   24 1   
    21   20   21 1   
    22   20   23 1   
    23   20   25 1   
    24   21   22 2   
    25   21   29 1   
    26   23   26 1   
    27   23   27 1   
    28   23   28 1   
    29   29   30 1   
    30   29   37 1   
    31   30   31 1   
    32   30   33 1   
    33   30   38 1   
    34   31   32 2   
    35   31   41 1   
    36   33   34 1   
    37   33   39 1   
    38   33   40 1   
    39   34   35 1   
    40   34   36 1   
    41   41   42 1   
    42   41   45 1   
    43   42   43 1   
    44   42   46 1   
    45   42   47 1   
    46   43   44 2   
    47   43   48 1   
    48   48   49 1   
    49   48   56 1   
    50   49   50 1   
    51   49   52 1   
    52   49   57 1   
    53   50   51 2   
    54   50   62 1   
    55   52   53 1   
    56   52   58 1   
    57   52   59 1   
    58   53   54 1   
    59   53   55 2   
    60   54   60 1   
    61   54   61 1   
    62   62   63 1   
    63   62   66 1   
    64   63   64 1   
    65   63   67 1   
    66   63   68 1   
    67   64   65 2   
    68   64   69 1   
    69   69   70 1   
    70   69   76 1   
    71   70   71 1   
    72   70   73 1   
    73   70   77 1   
    74   71   72 2   
    75   71   83 1   
    76   73   74 1   
    77   73   75 1   
    78   73   78 1   
    79   74   80 1   
    80   74   81 1   
    81   74   82 1   
    82   75   79 1   
    83   83   84 1   
    84   83   91 1   
    85   84   85 1   
    86   84   87 1   
    87   84   92 1   
    88   85   86 2   
    89   85  102 1   
    90   87   88 1   
    91   87   89 1   
    92   87   93 1   
    93   88   90 1   
    94   88   94 1   
    95   88   95 1   
    96   89   96 1   
    97   89   97 1   
    98   89   98 1   
    99   90   99 1   
   100   90  100 1   
   101   90  101 1   
   102  102  103 1   
   103  102  110 1   
   104  103  104 1   
   105  103  106 1   
   106  103  111 1   
   107  104  105 2   
   108  104  114 1   
   109  106  107 1   
   110  106  112 1   
   111  106  113 1   
   112  107  108 1   
   113  107  109 1   
   114  114  115 1   
   115  114  125 1   
   116  115  116 1   
   117  115  118 1   
   118  115  126 1   
   119  116  117 2   
   120  116  134 1   
   121  118  119 1   
   122  118  127 1   
   123  118  128 1   
   124  119  120 ar  
   125  119  121 ar  
   126  120  122 ar  
   127  120  129 1   
   128  121  123 ar  
   129  121  130 1   
   130  122  124 ar  
   131  122  131 1   
   132  123  124 ar  
   133  123  132 1   
   134  124  133 1   
   135  134  135 1   
   136  134  140 1   
   137  135  136 1   
   138  135  138 1   
   139  135  141 1   
   140  136  137 2   
   141  136  148 1   
   142  138  139 1   
   143  138  142 1   
   144  138  143 1   
   145  139  140 1   
   146  139  144 1   
   147  139  145 1   
   148  140  146 1   
   149  140  147 1   
   150  148  149 1   
   151  148  157 1   
   152  149  150 1   
   153  149  152 1   
   154  149  158 1   
   155  150  151 2   
   156  150  163 1   
   157  152  153 1   
   158  152  159 1   
   159  152  160 1   
   160  153  154 1   
   161  153  161 1   
   162  153  162 1   
   163  154  155 1   
   164  154  156 1   
   165  163  164 1   
   166  163  168 1   
   167  164  165 1   
   168  164  166 1   
   169  164  167 1   
   170  170  171 1   
   171  170  172 1   
   172  173  174 1   
   173  173  175 1   
   174  176  177 1   
   175  176  178 1   
   176  179  180 1   
   177  179  181 1   
@<TRIPOS>SUBSTRUCTURE
     1 MOL         1 TEMP              0 ****  ****    0 ROOT
