@<TRIPOS>MOLECULE
MOL
  178   175     1     0     0
SMALL
resp


@<TRIPOS>ATOM
      1 C1         -4.3930   -1.5560   -2.9760 c3        1 MOL     -0.561575
      2 C2         -5.6650   -0.6670   -2.7990 c         1 MOL      0.633906
      3 O1         -5.6260    0.4390   -2.2180 o         1 MOL     -0.582976
      4 H1         -4.2420   -1.7660   -4.0360 hc        1 MOL      0.163113
      5 H2         -3.5230   -1.0290   -2.5840 hc        1 MOL      0.163113
      6 H3         -4.5250   -2.4920   -2.4350 hc        1 MOL      0.163113
      7 N1         -6.8210   -1.1470   -3.1970 n         1 MOL     -0.455853
      8 C3         -8.2350   -0.7050   -2.9690 c3        1 MOL      0.185920
      9 C4         -8.7560   -1.2080   -1.6360 c         1 MOL      0.699726
     10 O2         -8.9820   -2.3980   -1.5250 o         1 MOL     -0.600096
     11 C5         -9.0880   -1.2550   -4.1540 c3        1 MOL     -0.374970
     12 C6        -10.5130   -0.6680   -4.1850 c         1 MOL      0.748736
     13 O3        -11.3000   -1.1830   -5.0420 o         1 MOL     -0.736322
     14 O4        -10.9770    0.1120   -3.3210 o         1 MOL     -0.736322
     15 H4         -6.7950   -2.0250   -3.6890 hn        1 MOL      0.245066
     16 H5         -8.2110    0.3870   -2.9200 h1        1 MOL      0.005222
     17 H6         -9.1780   -2.3290   -4.0020 hc        1 MOL      0.083172
     18 H7         -8.5730   -1.0310   -5.0880 hc        1 MOL      0.083172
     19 N2         -8.9990   -0.4730   -0.5440 n         1 MOL     -0.547898
     20 C7         -9.1930   -1.1100    0.7540 c3        1 MOL      0.354061
     21 C8         -7.8540   -1.5320    1.4190 c         1 MOL      0.409723
     22 O5         -7.8380   -2.2320    2.4270 o         1 MOL     -0.546440
     23 C9         -9.9520   -0.2270    1.6830 c3        1 MOL     -0.294179
     24 H8         -8.9810    0.5420   -0.6040 hn        1 MOL      0.258648
     25 H9         -9.8260   -1.9940    0.6720 h1        1 MOL      0.059907
     26 H10        -9.4590    0.7000    1.9760 hc        1 MOL      0.062488
     27 H11       -10.9320   -0.0750    1.2460 hc        1 MOL      0.062488
     28 H12       -10.1970   -0.7860    2.5910 hc        1 MOL      0.062488
     29 N3         -6.7290   -1.2140    0.7380 n         1 MOL     -0.405493
     30 C10        -5.2930   -1.5860    1.0580 c3        1 MOL      0.005925
     31 C11        -4.7900   -1.3090    2.4700 c         1 MOL      0.686364
     32 O6         -3.8830   -1.9590    3.0460 o         1 MOL     -0.558565
     33 C12        -4.9470   -2.9870    0.4720 c3        1 MOL      0.128806
     34 C13        -3.4490   -3.3880    0.5320 c         1 MOL      0.548683
     35 O7         -3.0510   -4.3950    1.1530 o         1 MOL     -0.679549
     36 O8         -2.6710   -2.6180   -0.0520 o         1 MOL     -0.679549
     37 H13        -6.7240   -0.6220   -0.0820 hn        1 MOL      0.173749
     38 H14        -4.7380   -0.9030    0.4020 h1        1 MOL      0.070108
     39 H15        -5.2420   -3.0450   -0.5820 hc        1 MOL     -0.040651
     40 H16        -5.4220   -3.7380    1.0910 hc        1 MOL     -0.040651
     41 N4         -5.4260   -0.3250    3.1280 n         1 MOL     -0.274170
     42 C14        -5.2000   -0.0200    4.5020 c3        1 MOL     -0.208929
     43 C15        -4.0330    0.9760    4.7960 c         1 MOL      0.566476
     44 O9         -3.7300    1.3810    5.8960 o         1 MOL     -0.537113
     45 H17        -6.1590    0.1740    2.6460 hn        1 MOL      0.254467
     46 H18        -5.0690   -0.8530    5.1870 h1        1 MOL      0.110331
     47 H19        -6.0290    0.5960    4.8540 h1        1 MOL      0.110331
     48 N5         -3.2860    1.5480    3.8070 n         1 MOL     -0.446038
     49 C16        -2.4050    2.6930    3.8920 c3        1 MOL      0.514824
     50 C17        -2.5010    3.4990    2.6080 c         1 MOL      0.407259
     51 O10        -2.8930    3.0440    1.5220 o         1 MOL     -0.432095
     52 C18        -0.9740    2.2680    4.2040 c3        1 MOL     -0.348305
     53 C19        -0.8540    1.7220    5.6570 c         1 MOL      0.603226
     54 N6         -0.9020    2.5800    6.7000 n         1 MOL     -0.759772
     55 O11        -0.6750    0.5660    5.9690 o         1 MOL     -0.501814
     56 H20        -3.5600    1.3200    2.8690 hn        1 MOL      0.135949
     57 H21        -2.7970    3.3030    4.7090 h1        1 MOL     -0.093426
     58 H22        -0.3770    3.1630    4.0430 hc        1 MOL      0.107034
     59 H23        -0.5830    1.5110    3.5280 hc        1 MOL      0.107034
     60 H24        -1.0180    3.5570    6.5220 hn        1 MOL      0.341793
     61 H25        -0.7600    2.2290    7.6350 hn        1 MOL      0.341793
     62 N7         -2.0250    4.7930    2.7110 n         1 MOL     -0.576588
     63 C20        -1.8990    5.6870    1.4990 c3        1 MOL      0.112082
     64 C21        -0.5110    5.8670    0.9260 c         1 MOL      0.485134
     65 O12         0.4490    5.3270    1.4460 o         1 MOL     -0.457015
     66 H26        -1.7140    5.1490    3.5990 hn        1 MOL      0.298842
     67 H27        -2.3390    6.6420    1.7870 h1        1 MOL      0.056213
     68 H28        -2.5760    5.3540    0.7100 h1        1 MOL      0.056213
     69 N8         -0.3690    6.8360    0.0310 n         1 MOL     -0.438856
     70 C22         1.0160    7.0940   -0.4210 c3        1 MOL     -0.281786
     71 C23         1.7810    6.0420   -1.2450 c         1 MOL      0.428461
     72 O13         3.0490    6.0430   -1.4140 o         1 MOL     -0.525955
     73 C24         0.9170    8.3790   -1.2860 c3        1 MOL      0.595678
     74 C25         0.0290    8.2540   -2.5080 c3        1 MOL     -0.455372
     75 O14         0.3950    9.4060   -0.5320 oh        1 MOL     -0.666315
     76 H29        -1.2020    7.2860   -0.3270 hn        1 MOL      0.245587
     77 H30         1.6530    7.2170    0.4530 h1        1 MOL      0.169309
     78 H31         1.9400    8.6150   -1.5750 h1        1 MOL      0.001291
     79 H32        -0.5630    9.2970   -0.4950 ho        1 MOL      0.391759
     80 H33        -0.9980    8.0070   -2.2460 hc        1 MOL      0.104071
     81 H34         0.0260    9.2720   -2.9170 hc        1 MOL      0.104071
     82 H35         0.5300    7.5440   -3.1650 hc        1 MOL      0.104071
     83 N9          0.9840    5.0840   -1.7650 n         1 MOL     -0.169619
     84 C26         1.4620    3.8520   -2.4780 c3        1 MOL      0.017212
     85 C27         1.2060    2.6170   -1.5500 c         1 MOL      0.537818
     86 O15         0.1260    2.4600   -1.0330 o         1 MOL     -0.475151
     87 C28         0.8070    3.7480   -3.8870 c3        1 MOL      0.040336
     88 C29         1.2130    4.9810   -4.7610 c3        1 MOL     -0.189658
     89 C30         1.1910    2.4580   -4.5390 c3        1 MOL      0.129382
     90 C31         2.6220    5.4290   -4.9470 c3        1 MOL     -0.223823
     91 H36        -0.0100    5.2240   -1.7980 hn        1 MOL      0.199480
     92 H37         2.5400    3.8930   -2.6030 h1        1 MOL      0.033797
     93 H38        -0.2660    3.7460   -3.6590 hc        1 MOL      0.030236
     94 H39         0.6670    5.8140   -4.3150 hc        1 MOL      0.065930
     95 H40         0.8450    4.9340   -5.7860 hc        1 MOL      0.065930
     96 H41         0.8700    1.6160   -3.9260 hc        1 MOL     -0.035678
     97 H42         0.8010    2.4130   -5.5620 hc        1 MOL     -0.035678
     98 H43         2.2760    2.4370   -4.4280 hc        1 MOL     -0.035678
     99 H44         2.6370    6.1420   -5.7660 hc        1 MOL      0.065992
    100 H45         3.1060    5.8350   -4.0510 hc        1 MOL      0.065992
    101 H46         3.2120    4.6620   -5.4610 hc        1 MOL      0.065992
    102 N10         2.2060    1.7850   -1.5350 n         1 MOL     -0.681409
    103 C32         2.1910    0.4930   -0.7940 c3        1 MOL      0.351896
    104 C33         3.5510   -0.0120   -0.1940 c         1 MOL      0.434644
    105 O16         3.6590   -1.0800    0.3870 o         1 MOL     -0.425124
    106 C34         1.4290   -0.5860   -1.5970 c3        1 MOL     -0.049029
    107 C35         0.8580   -1.7220   -0.8180 c         1 MOL      0.683331
    108 O17         0.6550   -1.6420    0.4110 o         1 MOL     -0.742602
    109 O18         0.6580   -2.8100   -1.3930 o         1 MOL     -0.742602
    110 H47         3.0680    2.0260   -2.0120 hn        1 MOL      0.370757
    111 H48         1.5350    0.6960    0.0530 h1        1 MOL      0.048509
    112 H49         2.1270   -0.9230   -2.3580 hc        1 MOL      0.005866
    113 H50         0.6150   -0.0590   -2.0900 hc        1 MOL      0.005866
    114 N11         4.6300    0.8130   -0.3190 n         1 MOL     -0.613375
    115 C36         5.9020    0.4180    0.3780 c3        1 MOL      0.377284
    116 C37         6.6510   -0.6000   -0.4580 c         1 MOL      0.190941
    117 O19         6.5940   -0.5100   -1.7110 o         1 MOL     -0.484562
    118 C38         6.7170    1.7110    0.6390 c3        1 MOL     -0.262192
    119 C39         8.0560    1.4450    1.3470 ca        1 MOL      0.120662
    120 C40         8.0130    1.4210    2.7510 ca        1 MOL     -0.200022
    121 C41         9.2610    1.2930    0.6490 ca        1 MOL     -0.200022
    122 C42         9.0930    1.0630    3.5160 ca        1 MOL     -0.086361
    123 C43        10.3400    0.8980    1.4740 ca        1 MOL     -0.086361
    124 C44        10.2510    0.7960    2.8530 ca        1 MOL     -0.117022
    125 H51         4.6570    1.5250   -1.0300 hn        1 MOL      0.282072
    126 H52         5.6150    0.0630    1.3570 h1        1 MOL      0.012829
    127 H53         6.2030    2.4630    1.2360 hc        1 MOL      0.094094
    128 H54         6.8890    2.2190   -0.3130 hc        1 MOL      0.094094
    129 H55         7.1030    1.6540    3.2810 ha        1 MOL      0.136798
    130 H56         9.3630    1.4100   -0.4190 ha        1 MOL      0.136798
    131 H57         9.0170    1.0340    4.5970 ha        1 MOL      0.100077
    132 H58        11.3210    0.6990    1.0720 ha        1 MOL      0.100077
    133 H59        11.1200    0.4690    3.4050 ha        1 MOL      0.093253
    134 N12         7.4180   -1.5210    0.1690 n         1 MOL      0.259599
    135 C45         8.2230   -2.4290   -0.5690 c3        1 MOL     -0.076167
    136 C46         7.3680   -3.4310   -1.2920 c         1 MOL      0.414760
    137 O20         7.8340   -4.1120   -2.2100 o         1 MOL     -0.522943
    138 C47         9.1420   -3.0810    0.4360 c3        1 MOL     -0.180228
    139 C48         8.2870   -3.1080    1.6880 c3        1 MOL      0.037384
    140 C49         7.5320   -1.8170    1.6140 c3        1 MOL     -0.448266
    141 H60         8.7710   -1.7420   -1.2040 h1        1 MOL      0.057518
    142 H61         9.2440   -4.1380    0.1880 hc        1 MOL      0.081555
    143 H62        10.0160   -2.4440    0.6110 hc        1 MOL      0.081555
    144 H63         7.5360   -3.8870    1.6010 hc        1 MOL      0.033735
    145 H64         9.0280   -3.1500    2.4870 hc        1 MOL      0.033735
    146 H65         6.5660   -1.8980    2.1240 h1        1 MOL      0.160241
    147 H66         8.1900   -1.0760    2.0730 h1        1 MOL      0.160241
    148 N13         6.0650   -3.5270   -0.9560 n         1 MOL     -0.104717
    149 C50         5.1150   -4.3150   -1.7690 c3        1 MOL     -0.350158
    150 C51         4.9630   -3.8310   -3.2560 c         1 MOL      0.457069
    151 O21         4.7680   -4.6440   -4.2050 o         1 MOL     -0.535925
    152 C52         3.6640   -4.2930   -1.1980 c3        1 MOL      0.251038
    153 C53         3.6470   -5.0160    0.1770 c3        1 MOL     -0.270838
    154 C54         2.1610   -5.0650    0.6960 c         1 MOL      0.702383
    155 O22         1.3440   -5.7580    0.0310 o         1 MOL     -0.740043
    156 O23         1.8440   -4.4990    1.7410 o         1 MOL     -0.740043
    157 H67         5.7050   -2.8460   -0.3070 hn        1 MOL      0.174676
    158 H68         5.3830   -5.3670   -1.8690 h1        1 MOL      0.168683
    159 H69         2.9560   -4.5860   -1.9660 hc        1 MOL      0.000676
    160 H70         3.4940   -3.2250   -1.1200 hc        1 MOL      0.000676
    161 H71         4.2580   -4.5470    0.9490 hc        1 MOL      0.043592
    162 H72         3.9940   -6.0290   -0.0500 hc        1 MOL      0.043592
    163 N14         5.2470   -2.5320   -3.6230 n         1 MOL     -0.137438
    164 C55         4.9260   -1.8280   -4.8940 c3        1 MOL     -0.193330
    165 H73         4.2610   -2.4500   -5.4950 h1        1 MOL      0.078143
    166 H74         4.4340   -0.8810   -4.6720 h1        1 MOL      0.078143
    167 H75         5.8460   -1.6410   -5.4490 h1        1 MOL      0.078143
    168 H76         5.7160   -1.9470   -2.9570 hn        1 MOL      0.157970
    169 Ca1        -0.4750   -4.0980    0.6150 Ca        1 MOL      1.733320
    170 O24        -0.9340   -6.2270    2.2730 oh        1 MOL     -0.817067
    171 H77        -1.1950   -7.1430    2.3470 ho        1 MOL      0.399089
    172 H78        -0.1930   -6.1290    2.8790 ho        1 MOL      0.399089
    173 O25        -1.7190   -5.9420   -0.9160 oh        1 MOL     -0.817067
    174 H79        -1.9760   -6.0690   -1.8240 ho        1 MOL      0.399089
    175 H80        -2.3050   -6.5240   -0.4200 ho        1 MOL      0.399089
    176 O26        -1.2030   -2.7240    2.7240 oh        1 MOL     -0.817067
    177 H81        -2.1140   -2.4610    2.8570 ho        1 MOL      0.399089
    178 H82        -0.8330   -2.7750    3.6050 ho        1 MOL      0.399089
@<TRIPOS>BOND
     1    1    2 1   
     2    1    4 1   
     3    1    5 1   
     4    1    6 1   
     5    2    3 2   
     6    2    7 1   
     7    7    8 1   
     8    7   15 1   
     9    8    9 1   
    10    8   11 1   
    11    8   16 1   
    12    9   10 2   
    13    9   19 1   
    14   11   12 1   
    15   11   17 1   
    16   11   18 1   
    17   12   13 1   
    18   12   14 1   
    19   19   20 1   
    20   19   24 1   
    21   20   21 1   
    22   20   23 1   
    23   20   25 1   
    24   21   22 2   
    25   21   29 1   
    26   23   26 1   
    27   23   27 1   
    28   23   28 1   
    29   29   30 1   
    30   29   37 1   
    31   30   31 1   
    32   30   33 1   
    33   30   38 1   
    34   31   32 2   
    35   31   41 1   
    36   33   34 1   
    37   33   39 1   
    38   33   40 1   
    39   34   35 1   
    40   34   36 1   
    41   41   42 1   
    42   41   45 1   
    43   42   43 1   
    44   42   46 1   
    45   42   47 1   
    46   43   44 2   
    47   43   48 1   
    48   48   49 1   
    49   48   56 1   
    50   49   50 1   
    51   49   52 1   
    52   49   57 1   
    53   50   51 2   
    54   50   62 1   
    55   52   53 1   
    56   52   58 1   
    57   52   59 1   
    58   53   54 1   
    59   53   55 2   
    60   54   60 1   
    61   54   61 1   
    62   62   63 1   
    63   62   66 1   
    64   63   64 1   
    65   63   67 1   
    66   63   68 1   
    67   64   65 2   
    68   64   69 1   
    69   69   70 1   
    70   69   76 1   
    71   70   71 1   
    72   70   73 1   
    73   70   77 1   
    74   71   72 2   
    75   71   83 1   
    76   73   74 1   
    77   73   75 1   
    78   73   78 1   
    79   74   80 1   
    80   74   81 1   
    81   74   82 1   
    82   75   79 1   
    83   83   84 1   
    84   83   91 1   
    85   84   85 1   
    86   84   87 1   
    87   84   92 1   
    88   85   86 2   
    89   85  102 1   
    90   87   88 1   
    91   87   89 1   
    92   87   93 1   
    93   88   90 1   
    94   88   94 1   
    95   88   95 1   
    96   89   96 1   
    97   89   97 1   
    98   89   98 1   
    99   90   99 1   
   100   90  100 1   
   101   90  101 1   
   102  102  103 1   
   103  102  110 1   
   104  103  104 1   
   105  103  106 1   
   106  103  111 1   
   107  104  105 2   
   108  104  114 1   
   109  106  107 1   
   110  106  112 1   
   111  106  113 1   
   112  107  108 1   
   113  107  109 1   
   114  114  115 1   
   115  114  125 1   
   116  115  116 1   
   117  115  118 1   
   118  115  126 1   
   119  116  117 2   
   120  116  134 1   
   121  118  119 1   
   122  118  127 1   
   123  118  128 1   
   124  119  120 ar  
   125  119  121 ar  
   126  120  122 ar  
   127  120  129 1   
   128  121  123 ar  
   129  121  130 1   
   130  122  124 ar  
   131  122  131 1   
   132  123  124 ar  
   133  123  132 1   
   134  124  133 1   
   135  134  135 1   
   136  134  140 1   
   137  135  136 1   
   138  135  138 1   
   139  135  141 1   
   140  136  137 2   
   141  136  148 1   
   142  138  139 1   
   143  138  142 1   
   144  138  143 1   
   145  139  140 1   
   146  139  144 1   
   147  139  145 1   
   148  140  146 1   
   149  140  147 1   
   150  148  149 1   
   151  148  157 1   
   152  149  150 1   
   153  149  152 1   
   154  149  158 1   
   155  150  151 2   
   156  150  163 1   
   157  152  153 1   
   158  152  159 1   
   159  152  160 1   
   160  153  154 1   
   161  153  161 1   
   162  153  162 1   
   163  154  155 1   
   164  154  156 1   
   165  163  164 1   
   166  163  168 1   
   167  164  165 1   
   168  164  166 1   
   169  164  167 1   
   170  170  171 1   
   171  170  172 1   
   172  173  174 1   
   173  173  175 1   
   174  176  177 1   
   175  176  178 1   
@<TRIPOS>SUBSTRUCTURE
     1 MOL         1 TEMP              0 ****  ****    0 ROOT
