@<TRIPOS>MOLECULE
MOL
  189   185     1     0     0
SMALL
resp


@<TRIPOS>ATOM
      1 C1          4.8630    4.9830   -3.4870 c3        1 MOL     -0.316944
      2 C2          5.2640    4.0570   -2.2780 c         1 MOL      0.855963
      3 O1          4.4600    3.7940   -1.3600 o         1 MOL     -0.708550
      4 H1          4.8280    4.3910   -4.4020 hc        1 MOL      0.082768
      5 H2          3.8820    5.4210   -3.3010 hc        1 MOL      0.082768
      6 H3          5.6000    5.7790   -3.5970 hc        1 MOL      0.082768
      7 N1          6.5490    3.6280   -2.3130 n         1 MOL     -0.715289
      8 C3          7.0730    2.5020   -1.6750 c3        1 MOL      0.326429
      9 C4          6.0370    1.3890   -1.5120 c         1 MOL      0.341637
     10 O2          5.5080    1.0640   -0.3880 o         1 MOL     -0.575929
     11 C5          7.8230    2.8210   -0.3620 c3        1 MOL     -0.154310
     12 C6          7.3350    3.9710    0.5440 c         1 MOL      0.768265
     13 O3          6.3350    3.7330    1.1760 o         1 MOL     -0.738290
     14 O4          7.9770    5.0540    0.6100 o         1 MOL     -0.738290
     15 H4          7.1660    3.9140   -3.0600 hn        1 MOL      0.341604
     16 H5          7.8900    2.0530   -2.2440 h1        1 MOL      0.015100
     17 H6          8.8410    3.0920   -0.6430 hc        1 MOL      0.013678
     18 H7          7.9400    1.9400    0.2630 hc        1 MOL      0.013678
     19 N2          5.6900    0.8410   -2.6670 n         1 MOL     -0.538899
     20 C7          4.9100   -0.4420   -2.8680 c3        1 MOL      0.131230
     21 C8          5.4310   -1.7100   -2.1650 c         1 MOL      0.332906
     22 O5          5.4400   -2.7070   -2.8890 o         1 MOL     -0.527279
     23 C9          3.3660   -0.2790   -2.7660 c3        1 MOL      0.402772
     24 C10         2.5000   -1.4470   -3.4180 c3        1 MOL     -0.493619
     25 C11         2.9230    1.0080   -3.4760 c3        1 MOL     -0.007014
     26 C12         2.9340   -1.8890   -4.8060 c3        1 MOL     -0.074420
     27 H8          5.9880    1.1840   -3.5730 hn        1 MOL      0.302585
     28 H9          5.0870   -0.7050   -3.9100 h1        1 MOL      0.046363
     29 H10         3.1950   -0.1450   -1.6980 hc        1 MOL     -0.215437
     30 H11         1.4330   -1.2370   -3.4530 hc        1 MOL      0.214675
     31 H12         2.6090   -2.3400   -2.7970 hc        1 MOL      0.214675
     32 H13         1.8320    0.9580   -3.5280 hc        1 MOL     -0.032549
     33 H14         3.2990    1.8880   -2.9530 hc        1 MOL     -0.032549
     34 H15         3.3390    1.0560   -4.4830 hc        1 MOL     -0.032549
     35 H16         2.9630   -1.1080   -5.5720 hc        1 MOL      0.020587
     36 H17         3.9570   -2.2800   -4.8580 hc        1 MOL      0.020587
     37 H18         2.2400   -2.6640   -5.1280 hc        1 MOL      0.020587
     38 N3          5.8360   -1.7340   -0.8740 n         1 MOL      0.068339
     39 C13         6.6870   -2.7700   -0.3500 c3        1 MOL     -0.462975
     40 C14         6.0910   -4.1610   -0.1820 c         1 MOL      0.793411
     41 O6          6.7360   -5.1010   -0.5350 o         1 MOL     -0.581348
     42 C15         7.3280   -2.1940    0.9640 c3        1 MOL     -0.070484
     43 C16         8.7120   -2.9070    1.4630 c         1 MOL      0.674762
     44 O7          8.5870   -3.6980    2.4330 o         1 MOL     -0.711420
     45 O8          9.8490   -2.4780    1.0280 o         1 MOL     -0.711420
     46 H19         5.8580   -0.8530   -0.3790 hn        1 MOL      0.286153
     47 H20         7.4480   -2.9930   -1.0930 h1        1 MOL      0.128792
     48 H21         6.5440   -1.9610    1.6930 hc        1 MOL      0.011341
     49 H22         7.5770   -1.1790    0.6570 hc        1 MOL      0.011341
     50 N4          4.8110   -4.3860    0.1980 n         1 MOL     -0.665532
     51 C17         3.8350   -3.3780    0.6340 c3        1 MOL      0.322560
     52 C18         2.8380   -3.9570    1.6220 c         1 MOL      0.551977
     53 O9          2.6760   -5.1880    1.6350 o         1 MOL     -0.593245
     54 H23         4.4930   -5.3420    0.1930 hn        1 MOL      0.308705
     55 H24         3.2960   -2.9520   -0.2090 h1        1 MOL     -0.033549
     56 H25         4.3150   -2.5140    1.0970 h1        1 MOL     -0.033549
     57 N5          2.2050   -3.1770    2.4660 n         1 MOL     -0.328910
     58 C19         2.2600   -1.7260    2.7290 c3        1 MOL      0.102088
     59 C20         2.2490   -0.8030    1.4880 c         1 MOL      0.632696
     60 O10         3.2580   -0.1240    1.2110 o         1 MOL     -0.694356
     61 C21         3.3550   -1.4470    3.7810 c3        1 MOL     -0.509811
     62 C22         3.1760   -2.1470    5.1260 c         1 MOL      0.754152
     63 O11         2.2500   -2.9790    5.4770 o         1 MOL     -0.711339
     64 O12         4.0360   -1.7940    5.9310 o         1 MOL     -0.711339
     65 H26         1.5450   -3.6060    3.0990 hn        1 MOL      0.191840
     66 H27         1.3630   -1.4190    3.2680 h1        1 MOL      0.047240
     67 H28         3.4260   -0.3790    3.9740 hc        1 MOL      0.170067
     68 H29         4.2540   -1.8890    3.3430 hc        1 MOL      0.170067
     69 N6          1.2420   -0.8690    0.6490 n         1 MOL     -0.553312
     70 C23        -0.0510   -1.4760    0.7820 c3        1 MOL      0.042893
     71 C24        -0.3200   -2.6540   -0.1120 c         1 MOL      0.579791
     72 O13         0.4990   -2.9240   -1.0180 o         1 MOL     -0.574162
     73 H30         1.3020   -0.0840    0.0060 hn        1 MOL      0.372865
     74 H31        -0.9100   -0.8150    0.6310 h1        1 MOL      0.042232
     75 H32        -0.1510   -1.7780    1.8270 h1        1 MOL      0.042232
     76 N7         -1.4060   -3.3760    0.1050 n         1 MOL     -0.604864
     77 C25        -1.7470   -4.6750   -0.4520 c3        1 MOL      0.034209
     78 C26        -2.4470   -4.5450   -1.8680 c         1 MOL      0.299233
     79 O14        -2.8790   -5.5670   -2.4700 o         1 MOL     -0.501540
     80 C27        -2.5610   -5.3850    0.5900 c3        1 MOL      0.141912
     81 C28        -1.7990   -5.8560    1.8640 c3        1 MOL     -0.288367
     82 C29        -2.6650   -6.5920    2.8530 c         1 MOL      0.647718
     83 N8         -3.2920   -5.9600    3.8020 n         1 MOL     -0.738225
     84 O15        -2.8660   -7.8440    2.7680 o         1 MOL     -0.589494
     85 H33        -2.0620   -3.0750    0.8120 hn        1 MOL      0.321355
     86 H34        -0.8320   -5.2390   -0.6050 h1        1 MOL      0.154121
     87 H35        -3.1050   -6.2080    0.1200 hc        1 MOL     -0.010458
     88 H36        -3.2930   -4.6160    0.8310 hc        1 MOL     -0.010458
     89 H37        -1.3940   -5.0150    2.4340 hc        1 MOL      0.106181
     90 H38        -0.9490   -6.4300    1.4870 hc        1 MOL      0.106181
     91 H39        -3.2290   -4.9550    3.9310 hn        1 MOL      0.354312
     92 H40        -3.8900   -6.5430    4.3640 hn        1 MOL      0.354312
     93 N9         -2.4540   -3.3410   -2.4530 n         1 MOL      0.069581
     94 C30        -2.9470   -3.0540   -3.7840 c3        1 MOL     -0.484165
     95 C31        -4.3520   -2.3020   -3.8580 c         1 MOL      0.616233
     96 O16        -4.9460   -2.1870   -4.9530 o         1 MOL     -0.560999
     97 C32        -1.8340   -2.4590   -4.7060 c3        1 MOL      0.381524
     98 C33        -0.5460   -3.2700   -4.7760 c3        1 MOL     -0.280924
     99 C34        -1.3380   -1.0430   -4.3150 c3        1 MOL     -0.280924
    100 H41        -1.9540   -2.6290   -1.9330 hn        1 MOL      0.215903
    101 H42        -3.2320   -4.0180   -4.2000 h1        1 MOL      0.166256
    102 H43        -2.1350   -2.3860   -5.7550 hc        1 MOL     -0.029436
    103 H44        -0.9070   -4.2860   -4.9430 hc        1 MOL      0.059892
    104 H45         0.1670   -2.9830   -5.5510 hc        1 MOL      0.059892
    105 H46        -0.0420   -3.3700   -3.8120 hc        1 MOL      0.059892
    106 H47        -2.2490   -0.4690   -4.1130 hc        1 MOL      0.059892
    107 H48        -0.6980   -1.2520   -3.4610 hc        1 MOL      0.059892
    108 H49        -0.7830   -0.6640   -5.1670 hc        1 MOL      0.059892
    109 N10        -4.9120   -1.8000   -2.7320 n         1 MOL     -0.301403
    110 C35        -6.1800   -1.0620   -2.6220 c3        1 MOL     -0.070288
    111 C36        -6.1360    0.3480   -2.0420 c         1 MOL      0.639240
    112 O17        -6.8430    1.2080   -2.5200 o         1 MOL     -0.575773
    113 C37        -7.1750   -2.0280   -2.0630 c3        1 MOL     -0.079161
    114 C38        -6.7320   -2.5770   -0.6910 c         1 MOL      0.538083
    115 N11        -7.6080   -3.3240   -0.0890 n         1 MOL     -0.724672
    116 O18        -5.6890   -2.2760   -0.1630 o         1 MOL     -0.494221
    117 H50        -4.3410   -1.9130   -1.9030 hn        1 MOL      0.120453
    118 H51        -6.5980   -0.9960   -3.6210 h1        1 MOL      0.090792
    119 H52        -7.2770   -2.8760   -2.7380 hc        1 MOL      0.066476
    120 H53        -8.2070   -1.6860   -1.9680 hc        1 MOL      0.066476
    121 H54        -8.5270   -3.4810   -0.4760 hn        1 MOL      0.354898
    122 H55        -7.3590   -3.6750    0.8260 hn        1 MOL      0.354898
    123 N12        -5.4870    0.5900   -0.8950 n         1 MOL     -0.557388
    124 C39        -5.8190    1.7450    0.0120 c3        1 MOL      0.324277
    125 C40        -4.5660    2.4890    0.7130 c         1 MOL      0.328383
    126 O19        -3.4350    1.9760    0.8270 o         1 MOL     -0.437077
    127 C41        -6.7040    1.2750    1.1580 c3        1 MOL     -0.208500
    128 C42        -8.1430    0.8960    0.9240 ca        1 MOL     -0.008591
    129 C43        -8.6630   -0.1920    1.6640 ca        1 MOL     -0.034517
    130 C44        -8.9910    1.5600    0.0340 ca        1 MOL     -0.034517
    131 C45        -9.9940   -0.6180    1.4320 ca        1 MOL     -0.367521
    132 C46       -10.3030    1.1170   -0.2420 ca        1 MOL     -0.367521
    133 C47       -10.8380   -0.0550    0.4680 ca        1 MOL      0.391052
    134 O20       -12.0090   -0.6480    0.1850 oh        1 MOL     -0.516692
    135 H56        -4.9970   -0.2160   -0.5300 hn        1 MOL      0.281540
    136 H57        -6.2790    2.4850   -0.6350 h1        1 MOL      0.000249
    137 H58        -6.7290    2.0330    1.9440 hc        1 MOL      0.082666
    138 H59        -6.1800    0.3730    1.4610 hc        1 MOL      0.082666
    139 H60        -8.0750   -0.6320    2.4520 ha        1 MOL      0.115427
    140 H61        -8.6170    2.4730   -0.4010 ha        1 MOL      0.115427
    141 H62       -10.4330   -1.4430    1.9720 ha        1 MOL      0.152955
    142 H63       -10.9390    1.6250   -0.9460 ha        1 MOL      0.152955
    143 H64       -12.5390   -0.1910   -0.4860 ho        1 MOL      0.383447
    144 N13        -4.8230    3.7470    1.1610 n         1 MOL     -0.229281
    145 C48        -3.8740    4.5150    1.9090 c3        1 MOL     -0.188172
    146 C49        -2.4810    4.8670    1.1580 c         1 MOL      0.600788
    147 O21        -1.7050    5.6810    1.6390 o         1 MOL     -0.497710
    148 C50        -3.6930    3.9190    3.3340 c3        1 MOL      0.241734
    149 C51        -4.8440    4.2660    4.3050 c3        1 MOL     -0.307610
    150 C52        -4.6510    3.6080    5.6750 c         1 MOL      0.696582
    151 O22        -3.5600    3.7090    6.2350 o         1 MOL     -0.724086
    152 O23        -5.6580    3.0030    6.1920 o         1 MOL     -0.724086
    153 H65        -5.7170    4.0840    0.8170 hn        1 MOL      0.219969
    154 H66        -4.3200    5.4730    2.1770 h1        1 MOL      0.086359
    155 H67        -2.7610    4.2610    3.7800 hc        1 MOL      0.007000
    156 H68        -3.6050    2.8430    3.1470 hc        1 MOL      0.007000
    157 H69        -5.7440    3.9000    3.8110 hc        1 MOL      0.029222
    158 H70        -4.8540    5.3420    4.4300 hc        1 MOL      0.029222
    159 N14        -2.3010    4.4090   -0.1180 n         1 MOL     -0.767916
    160 C53        -1.1990    4.6590   -1.0430 c3        1 MOL      0.414796
    161 C54        -1.3920    5.7470   -2.0410 c         1 MOL      0.499275
    162 O24        -0.4320    6.4670   -2.2490 o         1 MOL     -0.519217
    163 C55        -0.7110    3.3030   -1.6710 c3        1 MOL     -0.384645
    164 C56        -0.2800    2.2640   -0.6780 c3        1 MOL      0.727509
    165 C57         1.0870    2.4160   -0.1040 c         1 MOL      0.429310
    166 O25         2.0370    1.7560   -0.4760 o         1 MOL     -0.608768
    167 O26         1.2420    3.2760    0.8080 o         1 MOL     -0.608768
    168 H71        -3.0330    3.7950   -0.4570 hn        1 MOL      0.275766
    169 H72        -0.3310    5.0150   -0.4840 h1        1 MOL      0.015011
    170 H73         0.1120    3.5200   -2.3560 hc        1 MOL      0.035996
    171 H74        -1.6150    2.9080   -2.1340 hc        1 MOL      0.035996
    172 H75        -0.3210    1.2430   -1.0520 hc        1 MOL     -0.199351
    173 H76        -0.9820    2.2010    0.1520 hc        1 MOL     -0.199351
    174 N15        -2.5640    5.7850   -2.7820 n         1 MOL     -0.398268
    175 C58        -2.7200    6.6260   -3.9860 c3        1 MOL     -0.159344
    176 H77        -3.3440    6.1070   -4.7130 h1        1 MOL      0.088660
    177 H78        -3.1930    7.5700   -3.7110 h1        1 MOL      0.088660
    178 H79        -1.7410    6.8240   -4.4210 h1        1 MOL      0.088660
    179 H80        -3.2730    5.1210   -2.5210 hn        1 MOL      0.274312
    180 Ca1         3.9550    2.5030    1.0040 Ca        1 MOL      1.810250
    181 O27         3.8820    4.9900    2.0200 oh        1 MOL     -0.876061
    182 H81         3.3440    5.7380    2.2690 ho        1 MOL      0.423521
    183 H82         4.7670    5.3370    1.9340 ho        1 MOL      0.423521
    184 O28         5.3690    1.5940    3.0390 oh        1 MOL     -0.876061
    185 H83         6.2860    1.6840    3.3040 ho        1 MOL      0.423521
    186 H84         5.0900    0.7610    3.4280 ho        1 MOL      0.423521
    187 O29         2.4330    2.1710    3.4240 oh        1 MOL     -0.876061
    188 H85         2.5970    1.8930    4.3260 ho        1 MOL      0.423521
    189 H86         1.6560    2.7160    3.4780 ho        1 MOL      0.423521
@<TRIPOS>BOND
     1    1    2 1   
     2    1    4 1   
     3    1    5 1   
     4    1    6 1   
     5    2    3 2   
     6    2    7 1   
     7    7    8 1   
     8    7   15 1   
     9    8    9 1   
    10    8   11 1   
    11    8   16 1   
    12    9   10 2   
    13    9   19 1   
    14   11   12 1   
    15   11   17 1   
    16   11   18 1   
    17   12   13 1   
    18   12   14 1   
    19   19   20 1   
    20   19   27 1   
    21   20   21 1   
    22   20   23 1   
    23   20   28 1   
    24   21   22 2   
    25   21   38 1   
    26   23   24 1   
    27   23   25 1   
    28   23   29 1   
    29   24   26 1   
    30   24   30 1   
    31   24   31 1   
    32   25   32 1   
    33   25   33 1   
    34   25   34 1   
    35   26   35 1   
    36   26   36 1   
    37   26   37 1   
    38   38   39 1   
    39   38   46 1   
    40   39   40 1   
    41   39   42 1   
    42   39   47 1   
    43   40   41 2   
    44   40   50 1   
    45   42   43 1   
    46   42   48 1   
    47   42   49 1   
    48   43   44 1   
    49   43   45 1   
    50   50   51 1   
    51   50   54 1   
    52   51   52 1   
    53   51   55 1   
    54   51   56 1   
    55   52   53 2   
    56   52   57 1   
    57   57   58 1   
    58   57   65 1   
    59   58   59 1   
    60   58   61 1   
    61   58   66 1   
    62   59   60 2   
    63   59   69 1   
    64   61   62 1   
    65   61   67 1   
    66   61   68 1   
    67   62   63 1   
    68   62   64 1   
    69   69   70 1   
    70   69   73 1   
    71   70   71 1   
    72   70   74 1   
    73   70   75 1   
    74   71   72 2   
    75   71   76 1   
    76   76   77 1   
    77   76   85 1   
    78   77   78 1   
    79   77   80 1   
    80   77   86 1   
    81   78   79 2   
    82   78   93 1   
    83   80   81 1   
    84   80   87 1   
    85   80   88 1   
    86   81   82 1   
    87   81   89 1   
    88   81   90 1   
    89   82   83 1   
    90   82   84 2   
    91   83   91 1   
    92   83   92 1   
    93   93   94 1   
    94   93  100 1   
    95   94   95 1   
    96   94   97 1   
    97   94  101 1   
    98   95   96 2   
    99   95  109 1   
   100   97   98 1   
   101   97   99 1   
   102   97  102 1   
   103   98  103 1   
   104   98  104 1   
   105   98  105 1   
   106   99  106 1   
   107   99  107 1   
   108   99  108 1   
   109  109  110 1   
   110  109  117 1   
   111  110  111 1   
   112  110  113 1   
   113  110  118 1   
   114  111  112 2   
   115  111  123 1   
   116  113  114 1   
   117  113  119 1   
   118  113  120 1   
   119  114  115 1   
   120  114  116 2   
   121  115  121 1   
   122  115  122 1   
   123  123  124 1   
   124  123  135 1   
   125  124  125 1   
   126  124  127 1   
   127  124  136 1   
   128  125  126 2   
   129  125  144 1   
   130  127  128 1   
   131  127  137 1   
   132  127  138 1   
   133  128  129 ar  
   134  128  130 ar  
   135  129  131 ar  
   136  129  139 1   
   137  130  132 ar  
   138  130  140 1   
   139  131  133 ar  
   140  131  141 1   
   141  132  133 ar  
   142  132  142 1   
   143  133  134 1   
   144  134  143 1   
   145  144  145 1   
   146  144  153 1   
   147  145  146 1   
   148  145  148 1   
   149  145  154 1   
   150  146  147 2   
   151  146  159 1   
   152  148  149 1   
   153  148  155 1   
   154  148  156 1   
   155  149  150 1   
   156  149  157 1   
   157  149  158 1   
   158  150  151 1   
   159  150  152 1   
   160  159  160 1   
   161  159  168 1   
   162  160  161 1   
   163  160  163 1   
   164  160  169 1   
   165  161  162 2   
   166  161  174 1   
   167  163  164 1   
   168  163  170 1   
   169  163  171 1   
   170  164  165 1   
   171  164  172 1   
   172  164  173 1   
   173  165  166 1   
   174  165  167 1   
   175  174  175 1   
   176  174  179 1   
   177  175  176 1   
   178  175  177 1   
   179  175  178 1   
   180  181  182 1   
   181  181  183 1   
   182  184  185 1   
   183  184  186 1   
   184  187  188 1   
   185  187  189 1   
@<TRIPOS>SUBSTRUCTURE
     1 MOL         1 TEMP              0 ****  ****    0 ROOT
