@<TRIPOS>MOLECULE
MOL
  195   189     1     0     0
SMALL
resp


@<TRIPOS>ATOM
      1 C1          2.1740    3.1170    3.6040 c3        1 MOL     -0.243762
      2 C2          1.4240    3.2920    2.2450 c         1 MOL      0.751790
      3 O1          0.6840    2.4450    1.8600 o         1 MOL     -0.512157
      4 H1          3.0290    3.7920    3.6370 hc        1 MOL      0.044023
      5 H2          1.4960    3.3500    4.4260 hc        1 MOL      0.044023
      6 H3          2.5200    2.0870    3.6990 hc        1 MOL      0.044023
      7 N1          1.5220    4.4450    1.5470 n         1 MOL     -0.564071
      8 C3          0.7990    4.8770    0.3290 c3        1 MOL     -0.181478
      9 C4         -0.7310    4.7820    0.3780 c         1 MOL      0.852134
     10 O2         -1.2980    4.1470   -0.5010 o         1 MOL     -0.601775
     11 C5          1.4610    4.2640   -0.9540 c3        1 MOL     -0.407613
     12 C6          2.9850    4.4870   -0.9990 c         1 MOL      1.035423
     13 O3          3.6160    3.5020   -1.4590 o         1 MOL     -0.830181
     14 O4          3.5020    5.5610   -0.6360 o         1 MOL     -0.830181
     15 H4          2.1200    5.1630    1.9240 hn        1 MOL      0.249500
     16 H5          1.0050    5.9500    0.2850 h1        1 MOL      0.089891
     17 H6          1.0270    4.7660   -1.8200 hc        1 MOL      0.146557
     18 H7          1.2160    3.2050   -1.0000 hc        1 MOL      0.146557
     19 N2         -1.4880    5.1790    1.3770 n         1 MOL     -0.583416
     20 C7         -2.9910    5.2200    1.3790 c3        1 MOL      0.110170
     21 C8         -3.4240    6.3880    0.4450 c         1 MOL      0.362032
     22 O5         -2.7110    7.4460    0.4150 o         1 MOL     -0.555257
     23 C9         -3.6340    5.1710    2.7940 c3        1 MOL      0.028594
     24 C10        -3.4400    6.5160    3.6260 c3        1 MOL      0.079192
     25 C11        -3.0330    4.1270    3.7240 c3        1 MOL     -0.224223
     26 C12        -4.5230    7.5800    3.2670 c3        1 MOL     -0.062342
     27 H8         -0.9480    5.5510    2.1440 hn        1 MOL      0.284976
     28 H9         -3.3910    4.3300    0.9000 h1        1 MOL      0.112397
     29 H10        -4.7020    5.0200    2.6330 hc        1 MOL      0.077447
     30 H11        -2.5180    7.0490    3.4030 hc        1 MOL     -0.026825
     31 H12        -3.4580    6.3080    4.6940 hc        1 MOL     -0.026825
     32 H13        -3.6390    3.8270    4.5770 hc        1 MOL      0.050836
     33 H14        -2.7640    3.2510    3.1340 hc        1 MOL      0.050836
     34 H15        -2.0720    4.4130    4.1530 hc        1 MOL      0.050836
     35 H16        -4.4070    8.4810    3.8790 hc        1 MOL      0.010977
     36 H17        -4.4480    7.9280    2.2370 hc        1 MOL      0.010977
     37 H18        -5.5100    7.1570    3.4480 hc        1 MOL      0.010977
     38 N3         -4.5550    6.2980   -0.2670 n         1 MOL     -0.465670
     39 C13        -5.6770    5.2710   -0.2390 c3        1 MOL      0.118805
     40 C14        -5.4220    3.9820   -0.9220 c         1 MOL      0.584436
     41 O6         -5.6360    2.9500   -0.2830 o         1 MOL     -0.543342
     42 C15        -6.8770    5.8990   -0.8790 c3        1 MOL     -0.185262
     43 C16        -8.1060    5.0530   -0.9650 c         1 MOL      0.736721
     44 O7         -8.3960    4.2770   -0.0710 o         1 MOL     -0.705558
     45 O8         -8.8130    5.2950   -1.9710 o         1 MOL     -0.705558
     46 H19        -4.6990    7.0110   -0.9600 hn        1 MOL      0.306623
     47 H20        -5.9420    5.0660    0.8020 h1        1 MOL      0.037417
     48 H21        -6.5780    6.1560   -1.8930 hc        1 MOL      0.001708
     49 H22        -7.0720    6.8950   -0.4710 hc        1 MOL      0.001708
     50 N4         -4.7460    4.0670   -2.0380 n         1 MOL     -0.351550
     51 C17        -4.3550    2.8330   -2.7430 c3        1 MOL     -0.392572
     52 C18        -5.4970    1.8700   -3.1230 c         1 MOL      0.514065
     53 O9         -6.7240    2.1330   -3.1300 o         1 MOL     -0.513314
     54 H23        -4.4240    4.9280   -2.4660 hn        1 MOL      0.299025
     55 H24        -3.6000    2.2820   -2.1790 h1        1 MOL      0.183730
     56 H25        -3.9420    3.1800   -3.6950 h1        1 MOL      0.183730
     57 N5         -5.1350    0.6170   -3.2750 n         1 MOL     -0.363242
     58 C19        -6.0370   -0.5660   -3.5030 c3        1 MOL     -0.000916
     59 C20        -6.9040   -1.0830   -2.2730 c         1 MOL      0.392874
     60 O10        -7.8550   -1.8610   -2.3940 o         1 MOL     -0.569544
     61 C21        -5.1520   -1.7680   -3.9270 c3        1 MOL     -0.171326
     62 C22        -3.9920   -1.9470   -2.9630 c         1 MOL      0.723242
     63 O11        -2.9210   -1.3750   -3.0740 o         1 MOL     -0.667219
     64 O12        -4.0710   -2.8260   -2.0500 o         1 MOL     -0.667219
     65 H26        -4.1490    0.4140   -3.1380 hn        1 MOL      0.190625
     66 H27        -6.7070   -0.3530   -4.3430 h1        1 MOL      0.099479
     67 H28        -4.6720   -1.5040   -4.8680 hc        1 MOL      0.030305
     68 H29        -5.7460   -2.6500   -4.1270 hc        1 MOL      0.030305
     69 N6         -6.6130   -0.6620   -1.0500 n         1 MOL     -0.025799
     70 C23        -7.2710   -1.0440    0.2100 c3        1 MOL     -0.226080
     71 C24        -7.2540   -2.5600    0.5650 c         1 MOL      0.544958
     72 O13        -7.9450   -2.8920    1.5140 o         1 MOL     -0.588394
     73 H30        -5.8150   -0.0600   -0.9170 hn        1 MOL      0.226341
     74 H31        -8.2840   -0.6520    0.2230 h1        1 MOL      0.109886
     75 H32        -6.6420   -0.6280    1.0030 h1        1 MOL      0.109886
     76 N7         -6.3800   -3.3150   -0.1250 n         1 MOL     -0.006400
     77 C25        -6.1140   -4.7490   -0.0180 c3        1 MOL      0.199164
     78 C26        -5.4530   -5.0140    1.3560 c         1 MOL      0.464679
     79 O14        -5.6000   -6.0990    1.8970 o         1 MOL     -0.526242
     80 C27        -7.3500   -5.5300   -0.2710 c3        1 MOL     -0.249302
     81 C28        -7.9400   -5.1610   -1.6330 c3        1 MOL      0.070084
     82 C29        -8.8070   -6.1890   -2.2390 c         1 MOL      0.556840
     83 N8         -9.5740   -5.8620   -3.1700 n         1 MOL     -0.701663
     84 O15        -8.7480   -7.4180   -1.9930 o         1 MOL     -0.599987
     85 H33        -5.7360   -2.8150   -0.7160 hn        1 MOL     -0.096495
     86 H34        -5.3480   -5.0580   -0.7230 h1        1 MOL      0.055931
     87 H35        -8.1080   -5.1950    0.4390 hc        1 MOL      0.056268
     88 H36        -7.0860   -6.5870   -0.2110 hc        1 MOL      0.056268
     89 H37        -7.1500   -4.8430   -2.3160 hc        1 MOL      0.024939
     90 H38        -8.5340   -4.2600   -1.4450 hc        1 MOL      0.024939
     91 H39        -9.5680   -4.9310   -3.5610 hn        1 MOL      0.328012
     92 H40       -10.2280   -6.5830   -3.4470 hn        1 MOL      0.328012
     93 N9         -4.6770   -4.0910    1.9100 n         1 MOL     -0.455611
     94 C30        -4.1770   -4.0880    3.3060 c3        1 MOL     -0.068053
     95 C31        -2.6220   -3.7010    3.5220 c         1 MOL      0.553908
     96 O16        -2.0880   -3.8070    4.6240 o         1 MOL     -0.568995
     97 C32        -4.8860   -3.0280    4.1460 c3        1 MOL      0.436356
     98 C33        -5.0350   -1.6020    3.5690 c3        1 MOL     -0.450428
     99 C34        -6.2070   -3.5670    4.6460 c3        1 MOL     -0.450428
    100 H41        -4.4000   -3.3010    1.3430 hn        1 MOL      0.282924
    101 H42        -4.3850   -5.0520    3.7820 h1        1 MOL      0.102206
    102 H43        -4.3240   -2.9120    5.0690 hc        1 MOL     -0.070563
    103 H44        -4.0920   -1.2780    3.1200 hc        1 MOL      0.101066
    104 H45        -5.9080   -1.6150    2.9210 hc        1 MOL      0.101066
    105 H46        -5.3620   -1.0170    4.4240 hc        1 MOL      0.101066
    106 H47        -6.9070   -3.4750    3.8190 hc        1 MOL      0.101066
    107 H48        -6.0880   -4.5520    5.0880 hc        1 MOL      0.101066
    108 H49        -6.5480   -2.8590    5.3940 hc        1 MOL      0.101066
    109 N10        -1.9750   -3.2920    2.3690 n         1 MOL     -0.552148
    110 C35        -0.6510   -2.8160    2.3640 c3        1 MOL      0.328946
    111 C36         0.1490   -3.3530    1.1770 c         1 MOL      0.664481
    112 O17        -0.3440   -3.8750    0.2650 o         1 MOL     -0.554236
    113 C37        -0.5730   -1.2760    2.4230 c3        1 MOL     -0.228967
    114 C38         0.7310   -0.9720    3.1260 c         1 MOL      0.457621
    115 N11         0.6880   -0.8200    4.4210 n         1 MOL     -0.686048
    116 O18         1.7750   -0.8230    2.5820 o         1 MOL     -0.501835
    117 H50        -2.5480   -3.2290    1.5390 hn        1 MOL      0.268164
    118 H51        -0.1360   -3.2250    3.2440 h1        1 MOL      0.018365
    119 H52        -1.3910   -0.8160    2.9740 hc        1 MOL      0.105695
    120 H53        -0.5860   -0.9510    1.3810 hc        1 MOL      0.105695
    121 H54        -0.2720   -0.8730    4.7400 hn        1 MOL      0.345495
    122 H55         1.5470   -0.4670    4.8170 hn        1 MOL      0.345495
    123 N12         1.4610   -3.1750    1.1780 n         1 MOL     -0.850441
    124 C39         2.4660   -3.5230    0.1360 c3        1 MOL      0.500390
    125 C40         3.8090   -3.7930    0.7600 c         1 MOL      0.590458
    126 O19         4.0230   -3.6160    1.9690 o         1 MOL     -0.557916
    127 C41         2.4840   -2.3260   -0.7790 c3        1 MOL     -0.341001
    128 C42         3.1410   -2.4980   -2.1190 ca        1 MOL      0.187117
    129 C43         4.1980   -1.6240   -2.4860 ca        1 MOL     -0.242034
    130 C44         2.6670   -3.5290   -2.9140 ca        1 MOL     -0.242034
    131 C45         4.9180   -1.9950   -3.6760 ca        1 MOL     -0.182972
    132 C46         3.2650   -3.6750   -4.2220 ca        1 MOL     -0.182972
    133 C47         4.4440   -2.9740   -4.5430 ca        1 MOL      0.211168
    134 O20         5.2060   -3.4620   -5.5410 oh        1 MOL     -0.461043
    135 H56         1.7900   -2.6670    1.9850 hn        1 MOL      0.330888
    136 H57         2.1880   -4.4490   -0.3790 h1        1 MOL      0.012278
    137 H58         2.9600   -1.4880   -0.2590 hc        1 MOL      0.141597
    138 H59         1.5010   -1.9800   -1.0700 hc        1 MOL      0.141597
    139 H60         4.6460   -0.8870   -1.8370 ha        1 MOL      0.170142
    140 H61         1.8950   -4.1810   -2.5340 ha        1 MOL      0.170142
    141 H62         5.8310   -1.5470   -4.0260 ha        1 MOL      0.128149
    142 H63         2.8910   -4.3440   -4.9830 ha        1 MOL      0.128149
    143 H64         5.8950   -2.8250   -5.7570 ho        1 MOL      0.355237
    144 N13         4.7740   -4.2170   -0.0690 n         1 MOL     -0.864533
    145 C48         6.2090   -4.2490    0.0950 c3        1 MOL      0.659132
    146 C49         6.9440   -3.4120   -1.0050 c         1 MOL      0.477368
    147 O21         7.1110   -3.8940   -2.1050 o         1 MOL     -0.534156
    148 C50         6.6780   -5.7110    0.1910 c3        1 MOL      0.064424
    149 C51         8.0420   -5.8350    0.8460 c3        1 MOL     -0.276424
    150 C52         8.6220   -7.1690    0.3280 c         1 MOL      0.603845
    151 O22         7.9770   -8.2590    0.4950 o         1 MOL     -0.656131
    152 O23         9.6000   -7.1200   -0.4840 o         1 MOL     -0.656131
    153 H65         4.4560   -4.3720   -1.0060 hn        1 MOL      0.293986
    154 H66         6.4510   -3.7900    1.0480 h1        1 MOL     -0.051184
    155 H67         6.5860   -6.1440   -0.8130 hc        1 MOL     -0.002324
    156 H68         5.9970   -6.2290    0.8550 hc        1 MOL     -0.002324
    157 H69         7.9430   -5.7520    1.9270 hc        1 MOL      0.047020
    158 H70         8.6350   -4.9900    0.4790 hc        1 MOL      0.047020
    159 N14         7.4130   -2.1960   -0.8320 n         1 MOL     -0.458585
    160 C53         7.3550   -1.2100    0.2880 c3        1 MOL     -0.188046
    161 C54         7.8500   -1.6560    1.6480 c         1 MOL      0.476482
    162 O24         8.9320   -2.2690    1.7840 o         1 MOL     -0.529288
    163 C55         8.0440    0.0790   -0.0390 c3        1 MOL      0.074892
    164 C56         7.2920    0.7850   -1.1980 c3        1 MOL     -0.277018
    165 C57         7.8930    2.1760   -1.4190 c         1 MOL      0.695480
    166 O25         7.1100    3.1490   -1.7670 o         1 MOL     -0.694549
    167 O26         9.1590    2.2240   -1.5600 o         1 MOL     -0.694549
    168 H71         7.8340   -1.7340   -1.6230 hn        1 MOL      0.320458
    169 H72         6.3010   -0.9980    0.4350 h1        1 MOL      0.047184
    170 H73         9.0840   -0.2030   -0.1860 hc        1 MOL      0.036010
    171 H74         8.1110    0.7450    0.8110 hc        1 MOL      0.036010
    172 H75         6.2550    0.9750   -0.9310 hc        1 MOL      0.090719
    173 H76         7.3810    0.1810   -2.0990 hc        1 MOL      0.090719
    174 N15         7.0880   -1.3480    2.6520 n         1 MOL     -0.241453
    175 C58         7.2160   -1.6600    4.1060 c3        1 MOL     -0.281064
    176 H77         6.2300   -1.8770    4.5180 h1        1 MOL      0.122367
    177 H78         7.8620   -2.5290    4.2360 h1        1 MOL      0.122367
    178 H79         7.6470   -0.8050    4.6250 h1        1 MOL      0.122367
    179 H80         6.2050   -0.9270    2.4000 hn        1 MOL      0.237124
    180 Ca1         6.0610    5.2100   -0.5940 Ca        1 MOL      1.741688
    181 O27         8.4420    6.2350   -1.5530 oh        1 MOL     -0.854402
    182 H81         8.4590    6.0120   -2.4870 ho        1 MOL      0.396936
    183 H82         8.9230    7.0590   -1.5000 ho        1 MOL      0.396936
    184 O28         7.9560    4.7100    1.2770 oh        1 MOL     -0.854402
    185 H83         7.8930    3.9750    1.8950 ho        1 MOL      0.396936
    186 H84         8.8430    5.0680    1.4170 ho        1 MOL      0.396936
    187 O29         5.5240    5.7840   -3.2130 oh        1 MOL     -0.854402
    188 H85         5.9560    6.5380   -3.5990 ho        1 MOL      0.396936
    189 H86         5.0170    5.4080   -3.9310 ho        1 MOL      0.396936
    190 O30         5.3000    3.1820    0.9890 oh        1 MOL     -0.854402
    191 H87         5.2980    3.2090    1.9430 ho        1 MOL      0.396936
    192 H88         4.7570    2.4310    0.7700 ho        1 MOL      0.396936
    193 O31         5.6600    7.7750   -0.9480 oh        1 MOL     -0.854402
    194 H89         4.9570    7.8600   -1.5850 ho        1 MOL      0.396936
    195 H90         6.1590    8.5940   -1.0470 ho        1 MOL      0.396936
@<TRIPOS>BOND
     1    1    2 1   
     2    1    4 1   
     3    1    5 1   
     4    1    6 1   
     5    2    3 2   
     6    2    7 1   
     7    7    8 1   
     8    7   15 1   
     9    8    9 1   
    10    8   11 1   
    11    8   16 1   
    12    9   10 2   
    13    9   19 1   
    14   11   12 1   
    15   11   17 1   
    16   11   18 1   
    17   12   13 1   
    18   12   14 1   
    19   19   20 1   
    20   19   27 1   
    21   20   21 1   
    22   20   23 1   
    23   20   28 1   
    24   21   22 2   
    25   21   38 1   
    26   23   24 1   
    27   23   25 1   
    28   23   29 1   
    29   24   26 1   
    30   24   30 1   
    31   24   31 1   
    32   25   32 1   
    33   25   33 1   
    34   25   34 1   
    35   26   35 1   
    36   26   36 1   
    37   26   37 1   
    38   38   39 1   
    39   38   46 1   
    40   39   40 1   
    41   39   42 1   
    42   39   47 1   
    43   40   41 2   
    44   40   50 1   
    45   42   43 1   
    46   42   48 1   
    47   42   49 1   
    48   43   44 1   
    49   43   45 1   
    50   50   51 1   
    51   50   54 1   
    52   51   52 1   
    53   51   55 1   
    54   51   56 1   
    55   52   53 2   
    56   52   57 1   
    57   57   58 1   
    58   57   65 1   
    59   58   59 1   
    60   58   61 1   
    61   58   66 1   
    62   59   60 2   
    63   59   69 1   
    64   61   62 1   
    65   61   67 1   
    66   61   68 1   
    67   62   63 1   
    68   62   64 1   
    69   69   70 1   
    70   69   73 1   
    71   70   71 1   
    72   70   74 1   
    73   70   75 1   
    74   71   72 2   
    75   71   76 1   
    76   76   77 1   
    77   76   85 1   
    78   77   78 1   
    79   77   80 1   
    80   77   86 1   
    81   78   79 2   
    82   78   93 1   
    83   80   81 1   
    84   80   87 1   
    85   80   88 1   
    86   81   82 1   
    87   81   89 1   
    88   81   90 1   
    89   82   83 1   
    90   82   84 2   
    91   83   91 1   
    92   83   92 1   
    93   93   94 1   
    94   93  100 1   
    95   94   95 1   
    96   94   97 1   
    97   94  101 1   
    98   95   96 2   
    99   95  109 1   
   100   97   98 1   
   101   97   99 1   
   102   97  102 1   
   103   98  103 1   
   104   98  104 1   
   105   98  105 1   
   106   99  106 1   
   107   99  107 1   
   108   99  108 1   
   109  109  110 1   
   110  109  117 1   
   111  110  111 1   
   112  110  113 1   
   113  110  118 1   
   114  111  112 2   
   115  111  123 1   
   116  113  114 1   
   117  113  119 1   
   118  113  120 1   
   119  114  115 1   
   120  114  116 2   
   121  115  121 1   
   122  115  122 1   
   123  123  124 1   
   124  123  135 1   
   125  124  125 1   
   126  124  127 1   
   127  124  136 1   
   128  125  126 2   
   129  125  144 1   
   130  127  128 1   
   131  127  137 1   
   132  127  138 1   
   133  128  129 ar  
   134  128  130 ar  
   135  129  131 ar  
   136  129  139 1   
   137  130  132 ar  
   138  130  140 1   
   139  131  133 ar  
   140  131  141 1   
   141  132  133 ar  
   142  132  142 1   
   143  133  134 1   
   144  134  143 1   
   145  144  145 1   
   146  144  153 1   
   147  145  146 1   
   148  145  148 1   
   149  145  154 1   
   150  146  147 2   
   151  146  159 1   
   152  148  149 1   
   153  148  155 1   
   154  148  156 1   
   155  149  150 1   
   156  149  157 1   
   157  149  158 1   
   158  150  151 1   
   159  150  152 1   
   160  159  160 1   
   161  159  168 1   
   162  160  161 1   
   163  160  163 1   
   164  160  169 1   
   165  161  162 2   
   166  161  174 1   
   167  163  164 1   
   168  163  170 1   
   169  163  171 1   
   170  164  165 1   
   171  164  172 1   
   172  164  173 1   
   173  165  166 1   
   174  165  167 1   
   175  174  175 1   
   176  174  179 1   
   177  175  176 1   
   178  175  177 1   
   179  175  178 1   
   180  181  182 1   
   181  181  183 1   
   182  184  185 1   
   183  184  186 1   
   184  187  188 1   
   185  187  189 1   
   186  190  191 1   
   187  190  192 1   
   188  193  194 1   
   189  193  195 1   
@<TRIPOS>SUBSTRUCTURE
     1 MOL         1 TEMP              0 ****  ****    0 ROOT
