@<TRIPOS>MOLECULE
MOL
  178   175     1     0     0
SMALL
resp


@<TRIPOS>ATOM
      1 C1          1.5490   -0.2670    4.7420 c3        1 MOL     -0.172486
      2 C2          2.7910    0.1710    3.9150 c         1 MOL      0.777534
      3 O1          2.7950    1.0960    3.1290 o         1 MOL     -0.582204
      4 H1          1.0670   -1.1140    4.2520 hc        1 MOL      0.022857
      5 H2          1.8630   -0.5590    5.7440 hc        1 MOL      0.022857
      6 H3          0.8450    0.5620    4.8070 hc        1 MOL      0.022857
      7 N1          3.8700   -0.6290    4.0030 n         1 MOL     -0.752492
      8 C3          5.1960   -0.3250    3.3150 c3        1 MOL      0.390386
      9 C4          5.5870   -1.4370    2.3550 c         1 MOL      0.587726
     10 O2          6.6800   -1.3350    1.8710 o         1 MOL     -0.533252
     11 C5          6.2570   -0.0120    4.3680 c3        1 MOL     -0.273221
     12 C6          7.3060    1.0630    4.0580 c         1 MOL      0.746479
     13 O3          7.0820    1.9380    3.2080 o         1 MOL     -0.722614
     14 O4          8.3610    1.0750    4.7810 o         1 MOL     -0.722614
     15 H4          3.8320   -1.5190    4.4820 hn        1 MOL      0.297764
     16 H5          5.0740    0.5370    2.6620 h1        1 MOL      0.047127
     17 H6          6.7300   -0.9010    4.7850 hc        1 MOL      0.022459
     18 H7          5.8500    0.5130    5.2310 hc        1 MOL      0.022459
     19 N2          4.8040   -2.5680    2.2780 n         1 MOL     -0.591409
     20 C7          4.8810   -3.6100    1.2680 c3        1 MOL      0.304668
     21 C8          4.9290   -2.9800   -0.1180 c         1 MOL      0.348868
     22 O5          3.8940   -2.8470   -0.7760 o         1 MOL     -0.619678
     23 C9          6.1600   -4.4570    1.5000 c3        1 MOL     -0.504288
     24 H8          3.9380   -2.5050    2.8030 hn        1 MOL      0.301019
     25 H9          4.0410   -4.3040    1.3330 h1        1 MOL      0.068643
     26 H10         6.1180   -5.4350    1.0220 hc        1 MOL      0.136432
     27 H11         7.0410   -3.8470    1.3260 hc        1 MOL      0.136432
     28 H12         6.2830   -4.6330    2.5710 hc        1 MOL      0.136432
     29 N3          6.0850   -2.5670   -0.7140 n         1 MOL     -0.084201
     30 C10         6.2410   -1.9120   -2.0580 c3        1 MOL     -0.026723
     31 C11         6.1670   -0.4000   -2.0360 c         1 MOL      0.502225
     32 O6          6.2200    0.2180   -3.1090 o         1 MOL     -0.534075
     33 C12         7.4750   -2.4470   -2.8190 c3        1 MOL     -0.227656
     34 C13         7.5520   -3.9650   -2.7190 c         1 MOL      0.747740
     35 O7          8.2860   -4.4910   -1.8990 o         1 MOL     -0.737971
     36 O8          6.8810   -4.7170   -3.4670 o         1 MOL     -0.737971
     37 H13         6.9130   -2.9190   -0.2510 hn        1 MOL      0.165351
     38 H14         5.4000   -2.2380   -2.6680 h1        1 MOL      0.066665
     39 H15         8.3470   -2.0350   -2.3070 hc        1 MOL      0.037022
     40 H16         7.3720   -2.0960   -3.8380 hc        1 MOL      0.037022
     41 N4          5.9640    0.2100   -0.8420 n         1 MOL     -0.227136
     42 C14         6.0840    1.6300   -0.5910 c3        1 MOL     -0.009001
     43 C15         5.0830    2.3580   -1.4040 c         1 MOL      0.658814
     44 O9          5.5100    3.2940   -2.0840 o         1 MOL     -0.599654
     45 H17         5.8030   -0.3500   -0.0220 hn        1 MOL      0.128479
     46 H18         7.0910    1.9630   -0.8620 h1        1 MOL      0.057704
     47 H19         5.9160    1.8900    0.4510 h1        1 MOL      0.057704
     48 N5          3.8600    1.9180   -1.4320 n         1 MOL     -0.498765
     49 C16         2.8720    2.6110   -2.3100 c3        1 MOL      0.039413
     50 C17         2.4950    4.0200   -1.7750 c         1 MOL      0.467072
     51 O10         2.6740    4.2670   -0.5770 o         1 MOL     -0.441337
     52 C18         1.5360    1.7830   -2.4310 c3        1 MOL     -0.266448
     53 C19         1.6330    0.4630   -3.1380 c         1 MOL      0.813050
     54 N6          1.2260    0.3970   -4.4350 n         1 MOL     -0.895446
     55 O11         2.0940   -0.5070   -2.5610 o         1 MOL     -0.644347
     56 H20         3.6180    1.0850   -0.9160 hn        1 MOL      0.323977
     57 H21         3.3060    2.7250   -3.3030 h1        1 MOL      0.057985
     58 H22         0.8330    2.4590   -2.9240 hc        1 MOL      0.117575
     59 H23         1.1540    1.5600   -1.4340 hc        1 MOL      0.117575
     60 H24         0.9120    1.2040   -4.9580 hn        1 MOL      0.372394
     61 H25         1.3470   -0.4430   -4.9820 hn        1 MOL      0.372394
     62 N7          2.0550    4.9600   -2.6600 n         1 MOL     -0.376630
     63 C20         1.5920    6.2560   -2.3370 c3        1 MOL     -0.140156
     64 C21         0.0580    6.4510   -2.1140 c         1 MOL      0.552649
     65 O12        -0.7220    5.8460   -2.8120 o         1 MOL     -0.499130
     66 H26         1.8490    4.7310   -3.6190 hn        1 MOL      0.272959
     67 H27         1.9330    6.9090   -3.1300 h1        1 MOL      0.101524
     68 H28         2.0560    6.5680   -1.3970 h1        1 MOL      0.101524
     69 N8         -0.4010    7.3420   -1.1720 n         1 MOL     -0.482482
     70 C22        -1.8920    7.5600   -1.0610 c3        1 MOL     -0.262549
     71 C23        -2.7170    6.4360   -0.2640 c         1 MOL      0.373759
     72 O13        -3.9850    6.4570   -0.2540 o         1 MOL     -0.535498
     73 C24        -2.2490    8.8640   -0.3020 c3        1 MOL      0.428838
     74 C25        -2.0130    8.9020    1.1930 c3        1 MOL     -0.355996
     75 O14        -1.4560    9.9080   -0.8700 oh        1 MOL     -0.592902
     76 H29         0.2300    7.9420   -0.6710 hn        1 MOL      0.288073
     77 H30        -2.3000    7.5290   -2.0700 h1        1 MOL      0.189264
     78 H31        -3.2190    9.1980   -0.6670 h1        1 MOL      0.059614
     79 H32        -0.5690    9.6210   -0.6640 ho        1 MOL      0.344297
     80 H33        -1.0070    8.5560    1.4300 hc        1 MOL      0.084246
     81 H34        -2.0680    9.9660    1.4460 hc        1 MOL      0.084246
     82 H35        -2.7120    8.3520    1.8210 hc        1 MOL      0.084246
     83 N9         -1.9780    5.5230    0.4580 n         1 MOL     -0.062966
     84 C26        -2.4850    4.3140    0.9950 c3        1 MOL     -0.011789
     85 C27        -1.8930    3.0400    0.3720 c         1 MOL      0.442240
     86 O15        -0.8750    2.9960   -0.3700 o         1 MOL     -0.464950
     87 C28        -2.1870    4.3030    2.5170 c3        1 MOL      0.101098
     88 C29        -0.6480    4.2450    3.0350 c3        1 MOL     -0.203084
     89 C30        -2.8950    5.3440    3.3430 c3        1 MOL     -0.369456
     90 C31         0.3650    5.1850    2.3560 c3        1 MOL      0.179924
     91 H36        -0.9710    5.5400    0.4140 hn        1 MOL      0.220241
     92 H37        -3.5540    4.3160    0.7730 h1        1 MOL      0.071339
     93 H38        -2.6890    3.3940    2.8600 hc        1 MOL      0.003569
     94 H39        -0.3470    3.2110    2.8880 hc        1 MOL      0.077313
     95 H40        -0.6080    4.4050    4.1160 hc        1 MOL      0.077313
     96 H41        -2.8470    4.9400    4.3550 hc        1 MOL      0.087329
     97 H42        -2.3640    6.2950    3.2480 hc        1 MOL      0.087329
     98 H43        -3.9470    5.4440    3.0810 hc        1 MOL      0.087329
     99 H44         1.3070    5.1550    2.9080 hc        1 MOL     -0.032451
    100 H45         0.5790    5.0590    1.3000 hc        1 MOL     -0.032451
    101 H46         0.0780    6.2380    2.3500 hc        1 MOL     -0.032451
    102 N10        -2.5690    1.8820    0.6250 n         1 MOL     -0.509023
    103 C32        -2.2130    0.6680   -0.0940 c3        1 MOL      0.058907
    104 C33        -3.4320   -0.2430   -0.3820 c         1 MOL      0.468073
    105 O16        -3.2930   -1.4710   -0.3830 o         1 MOL     -0.452211
    106 C34        -1.0930   -0.0050    0.7970 c3        1 MOL     -0.028850
    107 C35        -0.1660   -0.8930   -0.0570 c         1 MOL      0.737439
    108 O17         0.9170   -1.3280    0.4450 o         1 MOL     -0.775058
    109 O18        -0.4330   -1.2170   -1.2590 o         1 MOL     -0.775058
    110 H47        -3.5120    1.8950    0.9800 hn        1 MOL      0.280253
    111 H48        -1.8110    0.8680   -1.0870 h1        1 MOL      0.064508
    112 H49        -1.5480   -0.5220    1.6430 hc        1 MOL      0.032049
    113 H50        -0.3390    0.7210    1.0780 hc        1 MOL      0.032049
    114 N11        -4.6350    0.2870   -0.5360 n         1 MOL     -0.362669
    115 C36        -5.8890   -0.4750   -0.9830 c3        1 MOL      0.120780
    116 C37        -6.1470   -1.6290    0.0300 c         1 MOL      0.112326
    117 O19        -6.2800   -1.3760    1.2560 o         1 MOL     -0.458935
    118 C38        -7.1760    0.4250   -1.0200 c3        1 MOL     -0.276518
    119 C39        -8.4140   -0.3790   -1.4210 ca        1 MOL      0.152652
    120 C40        -8.5580   -0.9190   -2.7360 ca        1 MOL     -0.268178
    121 C41        -9.3760   -0.7370   -0.4520 ca        1 MOL     -0.268178
    122 C42        -9.5930   -1.8090   -3.0600 ca        1 MOL     -0.010619
    123 C43       -10.5460   -1.5530   -0.8090 ca        1 MOL     -0.010619
    124 C44       -10.6480   -2.0900   -2.1430 ca        1 MOL     -0.211841
    125 H51        -4.6610    1.2730   -0.3030 hn        1 MOL      0.234543
    126 H52        -5.6300   -0.8040   -1.9940 h1        1 MOL      0.046534
    127 H53        -6.9510    1.2160   -1.7330 hc        1 MOL      0.125074
    128 H54        -7.3920    0.9250   -0.0660 hc        1 MOL      0.125074
    129 H55        -7.7870   -0.7320   -3.4730 ha        1 MOL      0.152397
    130 H56        -9.2900   -0.4170    0.5730 ha        1 MOL      0.152397
    131 H57        -9.6030   -2.0190   -4.1150 ha        1 MOL      0.089909
    132 H58       -11.3130   -1.8060   -0.0950 ha        1 MOL      0.089909
    133 H59       -11.5120   -2.6380   -2.4780 ha        1 MOL      0.125447
    134 N12        -6.2600   -2.9010   -0.3580 n         1 MOL      0.289425
    135 C45        -6.4800   -3.9860    0.5790 c3        1 MOL     -0.117945
    136 C46        -5.3650   -4.3030    1.6720 c         1 MOL      0.360932
    137 O20        -5.6950   -4.8390    2.7660 o         1 MOL     -0.533163
    138 C47        -6.7010   -5.2010   -0.3130 c3        1 MOL      0.002213
    139 C48        -6.1240   -4.8440   -1.6890 c3        1 MOL     -0.221096
    140 C49        -6.2200   -3.3620   -1.7650 c3        1 MOL      0.090347
    141 H60        -7.4130   -3.8280    1.1200 h1        1 MOL      0.086650
    142 H61        -6.0930   -6.0540   -0.0150 hc        1 MOL      0.023688
    143 H62        -7.7760   -5.4100   -0.3100 hc        1 MOL      0.023688
    144 H63        -5.0460   -5.0150   -1.6500 hc        1 MOL      0.078025
    145 H64        -6.7520   -5.3140   -2.4570 hc        1 MOL      0.078025
    146 H65        -5.3220   -3.0850   -2.3260 h1        1 MOL     -0.008024
    147 H66        -7.1110   -2.9840   -2.2630 h1        1 MOL     -0.008024
    148 N13        -4.1780   -3.7670    1.5480 n         1 MOL     -0.077112
    149 C50        -3.1560   -3.8920    2.5660 c3        1 MOL     -0.169031
    150 C51        -3.4020   -2.8550    3.6910 c         1 MOL      0.466289
    151 O21        -3.1410   -3.1140    4.8880 o         1 MOL     -0.545723
    152 C52        -1.7520   -3.7130    2.0160 c3        1 MOL      0.040730
    153 C53        -1.1280   -5.0680    1.6040 c3        1 MOL     -0.077678
    154 C54        -0.2410   -4.7690    0.3770 c         1 MOL      0.740222
    155 O22         1.0290   -4.5660    0.5230 o         1 MOL     -0.801812
    156 O23        -0.7230   -4.5740   -0.7500 o         1 MOL     -0.801812
    157 H67        -4.0170   -3.2060    0.7270 hn        1 MOL      0.111554
    158 H68        -3.2310   -4.8290    3.1200 h1        1 MOL      0.132974
    159 H69        -1.1440   -3.3610    2.8460 hc        1 MOL      0.046385
    160 H70        -1.7720   -2.8950    1.3010 hc        1 MOL      0.046385
    161 H71        -1.7860   -5.9090    1.4000 hc        1 MOL      0.008607
    162 H72        -0.5640   -5.6000    2.3690 hc        1 MOL      0.008607
    163 N14        -4.0680   -1.7060    3.3490 n         1 MOL     -0.116430
    164 C55        -4.5580   -0.7290    4.3910 c3        1 MOL     -0.408713
    165 H73        -5.0060   -1.2760    5.2200 h1        1 MOL      0.145278
    166 H74        -3.7190   -0.1370    4.7570 h1        1 MOL      0.145278
    167 H75        -5.3040   -0.0690    3.9480 h1        1 MOL      0.145278
    168 H76        -4.5460   -1.7490    2.4590 hn        1 MOL      0.164429
    169 Ca1         1.3900   -3.0540   -1.6430 Ca        1 MOL      1.814598
    170 O24        -0.1860   -3.3960   -3.7080 oh        1 MOL     -0.842571
    171 H77        -0.2710   -3.5770   -4.6480 ho        1 MOL      0.416436
    172 H78        -1.0510   -3.6220   -3.3540 ho        1 MOL      0.416436
    173 O25         2.7180   -2.9710   -4.0280 oh        1 MOL     -0.842571
    174 H79         2.8090   -2.1060   -4.4320 ho        1 MOL      0.416436
    175 H80         3.3290   -3.5230   -4.5180 ho        1 MOL      0.416436
    176 O26         2.3300   -5.3690   -2.1680 oh        1 MOL     -0.842571
    177 H81         2.0470   -6.1210   -1.6530 ho        1 MOL      0.416436
    178 H82         3.1720   -5.6270   -2.5410 ho        1 MOL      0.416436
@<TRIPOS>BOND
     1    1    2 1   
     2    1    4 1   
     3    1    5 1   
     4    1    6 1   
     5    2    3 2   
     6    2    7 1   
     7    7    8 1   
     8    7   15 1   
     9    8    9 1   
    10    8   11 1   
    11    8   16 1   
    12    9   10 2   
    13    9   19 1   
    14   11   12 1   
    15   11   17 1   
    16   11   18 1   
    17   12   13 1   
    18   12   14 1   
    19   19   20 1   
    20   19   24 1   
    21   20   21 1   
    22   20   23 1   
    23   20   25 1   
    24   21   22 2   
    25   21   29 1   
    26   23   26 1   
    27   23   27 1   
    28   23   28 1   
    29   29   30 1   
    30   29   37 1   
    31   30   31 1   
    32   30   33 1   
    33   30   38 1   
    34   31   32 2   
    35   31   41 1   
    36   33   34 1   
    37   33   39 1   
    38   33   40 1   
    39   34   35 1   
    40   34   36 1   
    41   41   42 1   
    42   41   45 1   
    43   42   43 1   
    44   42   46 1   
    45   42   47 1   
    46   43   44 2   
    47   43   48 1   
    48   48   49 1   
    49   48   56 1   
    50   49   50 1   
    51   49   52 1   
    52   49   57 1   
    53   50   51 2   
    54   50   62 1   
    55   52   53 1   
    56   52   58 1   
    57   52   59 1   
    58   53   54 1   
    59   53   55 2   
    60   54   60 1   
    61   54   61 1   
    62   62   63 1   
    63   62   66 1   
    64   63   64 1   
    65   63   67 1   
    66   63   68 1   
    67   64   65 2   
    68   64   69 1   
    69   69   70 1   
    70   69   76 1   
    71   70   71 1   
    72   70   73 1   
    73   70   77 1   
    74   71   72 2   
    75   71   83 1   
    76   73   74 1   
    77   73   75 1   
    78   73   78 1   
    79   74   80 1   
    80   74   81 1   
    81   74   82 1   
    82   75   79 1   
    83   83   84 1   
    84   83   91 1   
    85   84   85 1   
    86   84   87 1   
    87   84   92 1   
    88   85   86 2   
    89   85  102 1   
    90   87   88 1   
    91   87   89 1   
    92   87   93 1   
    93   88   90 1   
    94   88   94 1   
    95   88   95 1   
    96   89   96 1   
    97   89   97 1   
    98   89   98 1   
    99   90   99 1   
   100   90  100 1   
   101   90  101 1   
   102  102  103 1   
   103  102  110 1   
   104  103  104 1   
   105  103  106 1   
   106  103  111 1   
   107  104  105 2   
   108  104  114 1   
   109  106  107 1   
   110  106  112 1   
   111  106  113 1   
   112  107  108 1   
   113  107  109 1   
   114  114  115 1   
   115  114  125 1   
   116  115  116 1   
   117  115  118 1   
   118  115  126 1   
   119  116  117 2   
   120  116  134 1   
   121  118  119 1   
   122  118  127 1   
   123  118  128 1   
   124  119  120 ar  
   125  119  121 ar  
   126  120  122 ar  
   127  120  129 1   
   128  121  123 ar  
   129  121  130 1   
   130  122  124 ar  
   131  122  131 1   
   132  123  124 ar  
   133  123  132 1   
   134  124  133 1   
   135  134  135 1   
   136  134  140 1   
   137  135  136 1   
   138  135  138 1   
   139  135  141 1   
   140  136  137 2   
   141  136  148 1   
   142  138  139 1   
   143  138  142 1   
   144  138  143 1   
   145  139  140 1   
   146  139  144 1   
   147  139  145 1   
   148  140  146 1   
   149  140  147 1   
   150  148  149 1   
   151  148  157 1   
   152  149  150 1   
   153  149  152 1   
   154  149  158 1   
   155  150  151 2   
   156  150  163 1   
   157  152  153 1   
   158  152  159 1   
   159  152  160 1   
   160  153  154 1   
   161  153  161 1   
   162  153  162 1   
   163  154  155 1   
   164  154  156 1   
   165  163  164 1   
   166  163  168 1   
   167  164  165 1   
   168  164  166 1   
   169  164  167 1   
   170  170  171 1   
   171  170  172 1   
   172  173  174 1   
   173  173  175 1   
   174  176  177 1   
   175  176  178 1   
@<TRIPOS>SUBSTRUCTURE
     1 MOL         1 TEMP              0 ****  ****    0 ROOT
