@<TRIPOS>MOLECULE
MOL
  192   187     1     0     0
SMALL
resp


@<TRIPOS>ATOM
      1 C1         -3.8760   -5.0330    2.9410 c3        1 MOL     -0.523868
      2 C2         -2.7900   -4.7730    1.8760 c         1 MOL      0.471337
      3 O1         -2.3120   -3.6280    1.7470 o         1 MOL     -0.387999
      4 H1         -4.7360   -4.3930    2.7450 hc        1 MOL      0.130469
      5 H2         -4.1850   -6.0770    2.8980 hc        1 MOL      0.130469
      6 H3         -3.4770   -4.8110    3.9310 hc        1 MOL      0.130469
      7 N1         -2.3830   -5.7680    1.0440 n         1 MOL     -0.504583
      8 C3         -1.4590   -5.6910   -0.0770 c3        1 MOL     -0.401332
      9 C4          0.0340   -5.2570    0.3180 c         1 MOL      0.773230
     10 O2          0.9170   -5.3370   -0.5810 o         1 MOL     -0.560999
     11 C5         -2.0760   -4.9310   -1.3000 c3        1 MOL     -0.211839
     12 C6         -3.4950   -5.3370   -1.6470 c         1 MOL      0.588400
     13 O3         -4.4530   -4.4900   -1.3150 o         1 MOL     -0.630323
     14 O4         -3.7060   -6.3710   -2.3250 o         1 MOL     -0.630323
     15 H4         -2.8370   -6.6580    1.1800 hn        1 MOL      0.365210
     16 H5         -1.3370   -6.6900   -0.5050 h1        1 MOL      0.219145
     17 H6         -1.4810   -5.0430   -2.2080 hc        1 MOL      0.130585
     18 H7         -2.2540   -3.8940   -1.0230 hc        1 MOL      0.130585
     19 N2          0.3170   -4.9210    1.6210 n         1 MOL     -0.462760
     20 C7          1.5730   -4.2420    2.0550 c3        1 MOL     -0.590914
     21 C8          2.7480   -5.1900    1.9670 c         1 MOL      0.663824
     22 O5          2.5050   -6.4030    2.2240 o         1 MOL     -0.591801
     23 C9          1.4590   -3.6290    3.3710 c3        1 MOL      0.341270
     24 C10         1.3780   -4.6160    4.6060 c3        1 MOL      0.045388
     25 C11         0.3700   -2.5340    3.3310 c3        1 MOL     -0.296941
     26 C12         1.3410   -3.9260    5.9740 c3        1 MOL     -0.271575
     27 H8         -0.4540   -4.7270    2.2410 hn        1 MOL      0.398904
     28 H9          1.7680   -3.4190    1.3730 h1        1 MOL      0.181836
     29 H10         2.3590   -3.0200    3.4910 hc        1 MOL      0.003025
     30 H11         2.2380   -5.2780    4.5090 hc        1 MOL      0.022901
     31 H12         0.4930   -5.2430    4.5800 hc        1 MOL      0.022901
     32 H13         0.5120   -1.9080    2.4550 hc        1 MOL      0.065040
     33 H14        -0.6300   -2.9590    3.4050 hc        1 MOL      0.065040
     34 H15         0.5990   -1.8630    4.1510 hc        1 MOL      0.065040
     35 H16         0.3410   -3.5070    6.0780 hc        1 MOL      0.058239
     36 H17         1.4200   -4.5780    6.8440 hc        1 MOL      0.058239
     37 H18         2.1280   -3.1920    6.1000 hc        1 MOL      0.058239
     38 N3          4.0040   -4.8650    1.6870 n         1 MOL     -0.418012
     39 C13         4.5190   -3.4870    1.4650 c3        1 MOL     -0.012141
     40 C14         4.6840   -3.0620    0.0030 c         1 MOL      0.504136
     41 O6          4.8110   -1.8680   -0.2540 o         1 MOL     -0.541384
     42 C15         5.8270   -3.3060    2.1990 c3        1 MOL     -0.313554
     43 C16         6.8730   -4.3550    1.9030 c         1 MOL      0.780298
     44 O7          7.9660   -4.2320    2.5020 o         1 MOL     -0.729110
     45 O8          6.6390   -5.3770    1.2400 o         1 MOL     -0.729110
     46 H19         4.7740   -5.5160    1.6250 hn        1 MOL      0.287461
     47 H20         3.8900   -2.7150    1.9140 h1        1 MOL      0.083312
     48 H21         5.6440   -3.3240    3.2710 hc        1 MOL      0.090678
     49 H22         6.2830   -2.3370    2.0400 hc        1 MOL      0.090678
     50 N4          4.4960   -3.9870   -0.9430 n         1 MOL     -0.286326
     51 C17         4.3810   -3.6000   -2.3610 c3        1 MOL     -0.081795
     52 C18         5.5160   -2.7620   -2.9550 c         1 MOL      0.496442
     53 O9          6.5770   -3.1940   -3.4080 o         1 MOL     -0.584387
     54 H23         4.6340   -4.9790   -0.7900 hn        1 MOL      0.284211
     55 H24         3.4090   -3.1470   -2.5550 h1        1 MOL      0.075493
     56 H25         4.2820   -4.5570   -2.8760 h1        1 MOL      0.075493
     57 N5          5.1960   -1.4820   -3.1400 n         1 MOL     -0.387804
     58 C19         6.0930   -0.5480   -3.8300 c3        1 MOL      0.089999
     59 C20         7.0750    0.2180   -2.9130 c         1 MOL      0.303484
     60 O10         7.6490    1.2500   -3.3360 o         1 MOL     -0.501304
     61 C21         5.1860    0.4030   -4.6570 c3        1 MOL     -0.367087
     62 C22         4.2080    1.1930   -3.7830 c         1 MOL      0.786125
     63 O11         4.0190    0.9190   -2.5920 o         1 MOL     -0.700268
     64 O12         3.4620    2.0630   -4.3660 o         1 MOL     -0.700268
     65 H26         4.4690   -1.1000   -2.5440 hn        1 MOL      0.280666
     66 H27         6.7350   -1.0090   -4.5840 h1        1 MOL      0.116599
     67 H28         4.5050   -0.2510   -5.2010 hc        1 MOL      0.078671
     68 H29         5.8070    1.0260   -5.3130 hc        1 MOL      0.078671
     69 N6          7.1980   -0.1870   -1.6650 n         1 MOL     -0.125840
     70 C23         8.0160    0.3540   -0.6140 c3        1 MOL     -0.486501
     71 C24         7.5280    1.6510   -0.0250 c         1 MOL      0.612725
     72 O13         8.1030    2.0880    1.0230 o         1 MOL     -0.591116
     73 H30         6.5760   -0.9250   -1.3700 hn        1 MOL      0.270435
     74 H31         8.9850    0.5470   -1.0570 h1        1 MOL      0.194723
     75 H32         7.9740   -0.3250    0.2360 h1        1 MOL      0.194723
     76 N7          6.4250    2.2720   -0.5280 n         1 MOL     -0.344697
     77 C25         5.9020    3.6280   -0.2910 c3        1 MOL      0.238749
     78 C26         5.2870    3.7870    1.0570 c         1 MOL      0.249192
     79 O14         5.2270    4.8950    1.5500 o         1 MOL     -0.500526
     80 C27         6.8960    4.6300   -0.7560 c3        1 MOL      0.137686
     81 C28         7.1970    4.5070   -2.2450 c3        1 MOL     -0.037720
     82 C29         8.2930    5.4250   -2.6680 c         1 MOL      0.577146
     83 N8          9.2270    4.9350   -3.3780 n         1 MOL     -0.728502
     84 O15         8.1540    6.6310   -2.4300 o         1 MOL     -0.596167
     85 H33         6.2570    1.9410   -1.4690 hn        1 MOL      0.180418
     86 H34         5.0420    3.6280   -0.9570 h1        1 MOL      0.044501
     87 H35         7.8160    4.4860   -0.1810 hc        1 MOL     -0.032821
     88 H36         6.5830    5.6650   -0.5980 hc        1 MOL     -0.032821
     89 H37         6.3130    4.7160   -2.8390 hc        1 MOL      0.019630
     90 H38         7.5890    3.5040   -2.4490 hc        1 MOL      0.019630
     91 H39         9.4000    3.9390   -3.3840 hn        1 MOL      0.340863
     92 H40         9.9170    5.5570   -3.7550 hn        1 MOL      0.340863
     93 N9          4.9220    2.7050    1.7520 n         1 MOL      0.008227
     94 C30         4.3440    2.6630    3.0820 c3        1 MOL     -0.235328
     95 C31         2.8300    2.5780    2.9650 c         1 MOL      0.603641
     96 O16         2.1820    2.8910    3.9470 o         1 MOL     -0.559425
     97 C32         4.9690    1.6110    3.9840 c3        1 MOL      0.477080
     98 C33         4.8870    0.2040    3.4810 c3        1 MOL     -0.400097
     99 C34         6.3600    2.0250    4.4390 c3        1 MOL     -0.400097
    100 H41         4.8990    1.8730    1.1700 hn        1 MOL      0.070629
    101 H42         4.5270    3.5260    3.7180 h1        1 MOL      0.100346
    102 H43         4.4170    1.6020    4.9350 hc        1 MOL     -0.070392
    103 H44         3.8270    0.0610    3.2600 hc        1 MOL      0.086401
    104 H45         5.3810    0.0590    2.5090 hc        1 MOL      0.086401
    105 H46         5.4110   -0.4530    4.1740 hc        1 MOL      0.086401
    106 H47         6.3680    3.0660    4.7730 hc        1 MOL      0.086401
    107 H48         6.5840    1.4300    5.3220 hc        1 MOL      0.086401
    108 H49         7.0190    1.8260    3.5970 hc        1 MOL      0.086401
    109 N10         2.3000    2.0930    1.8260 n         1 MOL     -0.474047
    110 C35         0.8630    1.8980    1.6580 c3        1 MOL      0.202063
    111 C36         0.1480    3.1150    0.9790 c         1 MOL      0.483865
    112 O17         0.7880    4.1660    0.9290 o         1 MOL     -0.509958
    113 C37         0.6810    0.6040    0.7400 c3        1 MOL     -0.184489
    114 C38        -0.7350   -0.0410    0.7660 c         1 MOL      0.436981
    115 N11        -0.9710   -1.0160   -0.0570 n         1 MOL     -0.492803
    116 O18        -1.6630    0.4380    1.3760 o         1 MOL     -0.515785
    117 H50         2.8400    1.8740    1.0010 hn        1 MOL      0.282001
    118 H51         0.3560    1.8310    2.6220 h1        1 MOL      0.040894
    119 H52         1.4120   -0.1580    1.0200 hc        1 MOL      0.077291
    120 H53         0.9750    0.8890   -0.2650 hc        1 MOL      0.077291
    121 H54        -0.2150   -1.4800   -0.5440 hn        1 MOL      0.300424
    122 H55        -1.8100   -1.5430    0.1020 hn        1 MOL      0.300424
    123 N12        -1.1030    2.9680    0.4790 n         1 MOL     -0.452803
    124 C39        -1.8780    4.0060   -0.2230 c3        1 MOL      0.233927
    125 C40        -3.3430    3.9610    0.2670 c         1 MOL      0.514627
    126 O19        -3.8480    2.9700    0.7800 o         1 MOL     -0.533686
    127 C41        -1.7040    3.8040   -1.7600 c3        1 MOL     -0.157690
    128 C42        -2.2950    2.5400   -2.2890 ca        1 MOL      0.075310
    129 C43        -3.6070    2.5920   -2.8220 ca        1 MOL     -0.113176
    130 C44        -1.5020    1.3810   -2.5190 ca        1 MOL     -0.113176
    131 C45        -4.1430    1.4600   -3.4720 ca        1 MOL     -0.341167
    132 C46        -2.0310    0.2370   -3.2270 ca        1 MOL     -0.341167
    133 C47        -3.3870    0.2490   -3.5600 ca        1 MOL      0.422886
    134 O20        -4.0860   -0.8900   -3.8590 oh        1 MOL     -0.530213
    135 H56        -1.6040    2.1480    0.7840 hn        1 MOL      0.250446
    136 H57        -1.4330    4.9640    0.0600 h1        1 MOL      0.021966
    137 H58        -0.6290    3.7140   -1.8780 hc        1 MOL      0.044523
    138 H59        -2.0730    4.7010   -2.2590 hc        1 MOL      0.044523
    139 H60        -4.1870    3.5050   -2.8630 ha        1 MOL      0.132926
    140 H61        -0.4530    1.4240   -2.2720 ha        1 MOL      0.132926
    141 H62        -5.0710    1.4180   -4.0290 ha        1 MOL      0.149052
    142 H63        -1.4860   -0.7000   -3.2570 ha        1 MOL      0.149052
    143 H64        -5.0090   -0.6670   -3.9540 ho        1 MOL      0.335561
    144 N13        -4.1260    5.0590    0.0310 n         1 MOL     -0.582757
    145 C48        -5.5750    5.1190    0.4030 c3        1 MOL      0.562867
    146 C49        -6.3800    5.1310   -0.8750 c         1 MOL      0.248225
    147 O21        -6.4580    6.1200   -1.6220 o         1 MOL     -0.533428
    148 C50        -5.8270    6.4200    1.2010 c3        1 MOL     -0.067102
    149 C51        -4.9830    6.3310    2.5190 c3        1 MOL     -0.072932
    150 C52        -5.1370    7.6160    3.4350 c         1 MOL      0.635887
    151 O22        -5.4150    7.4700    4.6650 o         1 MOL     -0.665454
    152 O23        -4.9230    8.7540    2.8820 o         1 MOL     -0.665454
    153 H65        -3.7200    5.9050   -0.3560 hn        1 MOL      0.314494
    154 H66        -5.8180    4.2960    1.0720 h1        1 MOL     -0.054882
    155 H67        -6.8710    6.6660    1.3780 hc        1 MOL      0.007748
    156 H68        -5.3730    7.1970    0.5870 hc        1 MOL      0.007748
    157 H69        -3.9390    6.1090    2.3040 hc        1 MOL     -0.009505
    158 H70        -5.3610    5.5280    3.1470 hc        1 MOL     -0.009505
    159 N14        -7.1060    4.0510   -1.2610 n         1 MOL     -0.294342
    160 C53        -7.0650    2.6900   -0.5430 c3        1 MOL     -0.082097
    161 C54        -8.0970    2.6680    0.6660 c         1 MOL      0.379729
    162 O24        -9.0890    3.3840    0.6610 o         1 MOL     -0.497562
    163 C55        -7.2900    1.5260   -1.5500 c3        1 MOL      0.023512
    164 C56        -6.7170    0.1710   -1.1080 c3        1 MOL     -0.041871
    165 C57        -6.7620   -0.8460   -2.2580 c         1 MOL      0.370657
    166 O25        -6.6590   -0.4800   -3.4530 o         1 MOL     -0.539706
    167 O26        -6.9710   -2.0650   -2.0440 o         1 MOL     -0.539706
    168 H71        -7.6650    4.1720   -2.0850 hn        1 MOL      0.282719
    169 H72        -6.0750    2.5110   -0.1310 h1        1 MOL      0.047150
    170 H73        -6.7460    1.8390   -2.4410 hc        1 MOL      0.017473
    171 H74        -8.3150    1.4890   -1.9210 hc        1 MOL      0.017473
    172 H75        -7.3070   -0.1250   -0.2390 hc        1 MOL      0.037569
    173 H76        -5.6740    0.2570   -0.7880 hc        1 MOL      0.037569
    174 N15        -7.8070    1.8900    1.7540 n         1 MOL     -0.241747
    175 C58        -8.6180    1.8500    3.0690 c3        1 MOL     -0.226104
    176 H77        -9.6530    2.1240    2.8650 h1        1 MOL      0.105975
    177 H78        -8.5850    0.8440    3.4870 h1        1 MOL      0.105975
    178 H79        -8.1900    2.5550    3.7820 h1        1 MOL      0.105975
    179 H80        -6.9560    1.3500    1.6830 hn        1 MOL      0.252912
    180 Ca1        -6.9160   -4.2630   -0.8150 Ca        1 MOL      1.583239
    181 O27        -9.1790   -3.1440   -0.1070 oh        1 MOL     -0.868034
    182 H81        -9.9470   -3.6380   -0.3980 ho        1 MOL      0.405080
    183 H82        -9.5210   -2.5160    0.5290 ho        1 MOL      0.405080
    184 O28        -5.6490   -2.6010    0.8440 oh        1 MOL     -0.868034
    185 H83        -5.5900   -1.9810    1.5710 ho        1 MOL      0.405080
    186 H84        -4.9260   -2.3770    0.2690 ho        1 MOL      0.405080
    187 O29        -8.0270   -4.6460   -3.3630 oh        1 MOL     -0.868034
    188 H85        -7.4530   -4.1570   -3.9600 ho        1 MOL      0.405080
    189 H86        -8.5010   -5.2520   -3.9310 ho        1 MOL      0.405080
    190 O30        -6.4410   -6.8360   -1.5000 oh        1 MOL     -0.868034
    191 H87        -5.5030   -6.9060   -1.7000 ho        1 MOL      0.405080
    192 H88        -6.6320   -7.6160   -0.9830 ho        1 MOL      0.405080
@<TRIPOS>BOND
     1    1    2 1   
     2    1    4 1   
     3    1    5 1   
     4    1    6 1   
     5    2    3 2   
     6    2    7 1   
     7    7    8 1   
     8    7   15 1   
     9    8    9 1   
    10    8   11 1   
    11    8   16 1   
    12    9   10 2   
    13    9   19 1   
    14   11   12 1   
    15   11   17 1   
    16   11   18 1   
    17   12   13 1   
    18   12   14 1   
    19   19   20 1   
    20   19   27 1   
    21   20   21 1   
    22   20   23 1   
    23   20   28 1   
    24   21   22 2   
    25   21   38 1   
    26   23   24 1   
    27   23   25 1   
    28   23   29 1   
    29   24   26 1   
    30   24   30 1   
    31   24   31 1   
    32   25   32 1   
    33   25   33 1   
    34   25   34 1   
    35   26   35 1   
    36   26   36 1   
    37   26   37 1   
    38   38   39 1   
    39   38   46 1   
    40   39   40 1   
    41   39   42 1   
    42   39   47 1   
    43   40   41 2   
    44   40   50 1   
    45   42   43 1   
    46   42   48 1   
    47   42   49 1   
    48   43   44 1   
    49   43   45 1   
    50   50   51 1   
    51   50   54 1   
    52   51   52 1   
    53   51   55 1   
    54   51   56 1   
    55   52   53 2   
    56   52   57 1   
    57   57   58 1   
    58   57   65 1   
    59   58   59 1   
    60   58   61 1   
    61   58   66 1   
    62   59   60 2   
    63   59   69 1   
    64   61   62 1   
    65   61   67 1   
    66   61   68 1   
    67   62   63 1   
    68   62   64 1   
    69   69   70 1   
    70   69   73 1   
    71   70   71 1   
    72   70   74 1   
    73   70   75 1   
    74   71   72 2   
    75   71   76 1   
    76   76   77 1   
    77   76   85 1   
    78   77   78 1   
    79   77   80 1   
    80   77   86 1   
    81   78   79 2   
    82   78   93 1   
    83   80   81 1   
    84   80   87 1   
    85   80   88 1   
    86   81   82 1   
    87   81   89 1   
    88   81   90 1   
    89   82   83 1   
    90   82   84 2   
    91   83   91 1   
    92   83   92 1   
    93   93   94 1   
    94   93  100 1   
    95   94   95 1   
    96   94   97 1   
    97   94  101 1   
    98   95   96 2   
    99   95  109 1   
   100   97   98 1   
   101   97   99 1   
   102   97  102 1   
   103   98  103 1   
   104   98  104 1   
   105   98  105 1   
   106   99  106 1   
   107   99  107 1   
   108   99  108 1   
   109  109  110 1   
   110  109  117 1   
   111  110  111 1   
   112  110  113 1   
   113  110  118 1   
   114  111  112 2   
   115  111  123 1   
   116  113  114 1   
   117  113  119 1   
   118  113  120 1   
   119  114  115 1   
   120  114  116 2   
   121  115  121 1   
   122  115  122 1   
   123  123  124 1   
   124  123  135 1   
   125  124  125 1   
   126  124  127 1   
   127  124  136 1   
   128  125  126 2   
   129  125  144 1   
   130  127  128 1   
   131  127  137 1   
   132  127  138 1   
   133  128  129 ar  
   134  128  130 ar  
   135  129  131 ar  
   136  129  139 1   
   137  130  132 ar  
   138  130  140 1   
   139  131  133 ar  
   140  131  141 1   
   141  132  133 ar  
   142  132  142 1   
   143  133  134 1   
   144  134  143 1   
   145  144  145 1   
   146  144  153 1   
   147  145  146 1   
   148  145  148 1   
   149  145  154 1   
   150  146  147 2   
   151  146  159 1   
   152  148  149 1   
   153  148  155 1   
   154  148  156 1   
   155  149  150 1   
   156  149  157 1   
   157  149  158 1   
   158  150  151 1   
   159  150  152 1   
   160  159  160 1   
   161  159  168 1   
   162  160  161 1   
   163  160  163 1   
   164  160  169 1   
   165  161  162 2   
   166  161  174 1   
   167  163  164 1   
   168  163  170 1   
   169  163  171 1   
   170  164  165 1   
   171  164  172 1   
   172  164  173 1   
   173  165  166 1   
   174  165  167 1   
   175  174  175 1   
   176  174  179 1   
   177  175  176 1   
   178  175  177 1   
   179  175  178 1   
   180  181  182 1   
   181  181  183 1   
   182  184  185 1   
   183  184  186 1   
   184  187  188 1   
   185  187  189 1   
   186  190  191 1   
   187  190  192 1   
@<TRIPOS>SUBSTRUCTURE
     1 MOL         1 TEMP              0 ****  ****    0 ROOT
