@<TRIPOS>MOLECULE
MOL
  181   177     1     0     0
SMALL
resp


@<TRIPOS>ATOM
      1 C1          4.7940   -5.5910    4.9700 c3        1 MOL     -0.348761
      2 C2          4.2100   -4.6000    3.8890 c         1 MOL      0.703877
      3 O1          3.1810   -3.9870    4.0600 o         1 MOL     -0.530670
      4 H1          4.8440   -5.0870    5.9350 hc        1 MOL      0.076569
      5 H2          4.1460   -6.4650    5.0500 hc        1 MOL      0.076569
      6 H3          5.7940   -5.9070    4.6720 hc        1 MOL      0.076569
      7 N1          4.9200   -4.3470    2.7270 n         1 MOL     -0.515207
      8 C3          5.6630   -5.3010    1.8960 c3        1 MOL     -0.076319
      9 C4          5.0330   -5.5110    0.5300 c         1 MOL      0.503810
     10 O2          3.8300   -5.4050    0.3160 o         1 MOL     -0.419563
     11 C5          7.1400   -4.7830    1.8320 c3        1 MOL     -0.132420
     12 C6          7.2210   -3.3470    1.3150 c         1 MOL      0.735433
     13 O3          7.4650   -3.1470    0.1150 o         1 MOL     -0.731165
     14 O4          7.3130   -2.4140    2.1460 o         1 MOL     -0.731165
     15 H4          4.5820   -3.5440    2.2130 hn        1 MOL      0.349104
     16 H5          5.6030   -6.2670    2.3910 h1        1 MOL      0.101280
     17 H6          7.7910   -5.4330    1.2340 hc        1 MOL      0.013587
     18 H7          7.6720   -4.9210    2.7760 hc        1 MOL      0.013587
     19 N2          5.8980   -5.8070   -0.4670 n         1 MOL     -0.525715
     20 C7          5.6040   -5.8830   -1.9040 c3        1 MOL      0.265416
     21 C8          4.7400   -4.6890   -2.3510 c         1 MOL      0.357310
     22 O5          3.7020   -4.7770   -3.0050 o         1 MOL     -0.478869
     23 C9          5.0730   -7.2050   -2.3080 c3        1 MOL     -0.295830
     24 H8          6.8530   -6.0170   -0.2220 hn        1 MOL      0.276130
     25 H9          6.5470   -5.7060   -2.4240 h1        1 MOL      0.023625
     26 H10         4.2150   -7.5880   -1.7520 hc        1 MOL      0.071780
     27 H11         4.8900   -7.2190   -3.3820 hc        1 MOL      0.071780
     28 H12         5.8120   -8.0040   -2.2950 hc        1 MOL      0.071780
     29 N3          5.2110   -3.4990   -1.9440 n         1 MOL     -0.305216
     30 C10         4.7100   -2.1350   -2.2470 c3        1 MOL      0.063727
     31 C11         5.8500   -1.1320   -2.5160 c         1 MOL      0.389572
     32 O6          6.8960   -1.1510   -1.8300 o         1 MOL     -0.530279
     33 C12         3.7220   -1.6110   -1.1700 c3        1 MOL     -0.110113
     34 C13         4.1790   -1.5020    0.3090 c         1 MOL      0.762764
     35 O7          5.1280   -0.7810    0.5970 o         1 MOL     -0.714445
     36 O8          3.6500   -2.1370    1.2570 o         1 MOL     -0.714445
     37 H13         6.0410   -3.5480   -1.3620 hn        1 MOL      0.220147
     38 H14         4.2380   -2.1730   -3.2330 h1        1 MOL      0.012704
     39 H15         2.8300   -2.2410   -1.1340 hc        1 MOL      0.070531
     40 H16         3.3600   -0.6260   -1.4660 hc        1 MOL      0.070531
     41 N4          5.6000   -0.1650   -3.3750 n         1 MOL     -0.206003
     42 C14         6.5750    0.8890   -3.6650 c3        1 MOL     -0.504862
     43 C15         6.5720    1.8760   -2.5140 c         1 MOL      0.705016
     44 O9          6.9270    1.5880   -1.3600 o         1 MOL     -0.698395
     45 H17         4.6870   -0.0290   -3.7820 hn        1 MOL      0.289645
     46 H18         6.3510    1.4200   -4.5880 h1        1 MOL      0.188314
     47 H19         7.5340    0.3720   -3.7630 h1        1 MOL      0.188314
     48 N5          6.1630    3.1190   -2.8800 n         1 MOL     -0.487667
     49 C16         5.7570    4.1400   -1.9450 c3        1 MOL     -0.033329
     50 C17         4.2900    4.0060   -1.5020 c         1 MOL      0.728199
     51 O10         3.4540    3.6580   -2.3160 o         1 MOL     -0.548669
     52 C18         6.0610    5.5580   -2.4190 c3        1 MOL     -0.285562
     53 C19         7.4960    5.8370   -2.6500 c         1 MOL      0.689500
     54 N6          7.8380    6.8270   -3.4260 n         1 MOL     -0.751401
     55 O11         8.3670    5.1140   -2.1590 o         1 MOL     -0.578532
     56 H20         6.0480    3.3400   -3.8600 hn        1 MOL      0.315278
     57 H21         6.3690    3.9870   -1.0610 h1        1 MOL      0.136178
     58 H22         5.7460    6.2510   -1.6350 hc        1 MOL      0.096360
     59 H23         5.5050    5.8510   -3.3050 hc        1 MOL      0.096360
     60 H24         7.0790    7.1620   -4.0080 hn        1 MOL      0.350693
     61 H25         8.8120    6.9190   -3.6500 hn        1 MOL      0.350693
     62 N7          3.9950    4.0910   -0.2200 n         1 MOL     -0.553750
     63 C20         2.7140    4.1340    0.4120 c3        1 MOL      0.085630
     64 C21         2.1120    5.5210    0.3180 c         1 MOL      0.528525
     65 O12         2.7050    6.4350   -0.3600 o         1 MOL     -0.593404
     66 H26         4.7900    4.3080    0.3650 hn        1 MOL      0.280461
     67 H27         2.7570    3.6730    1.3930 h1        1 MOL      0.073618
     68 H28         1.9660    3.5150   -0.0760 h1        1 MOL      0.073618
     69 N8          1.0440    5.8670    1.0510 n         1 MOL     -0.512991
     70 C22         0.2590    5.0520    2.0020 c3        1 MOL      0.065109
     71 C23        -0.3730    3.8430    1.2840 c         1 MOL      0.367039
     72 O13        -0.5610    3.8870    0.0610 o         1 MOL     -0.434883
     73 C24        -0.8790    5.8620    2.7080 c3        1 MOL      0.524375
     74 C25        -0.4000    7.0110    3.5510 c3        1 MOL     -0.309223
     75 O14        -1.7910    6.3340    1.7490 oh        1 MOL     -0.611427
     76 H29         0.7700    6.8280    0.8790 hn        1 MOL      0.331776
     77 H30         0.9340    4.7770    2.8180 h1        1 MOL     -0.013427
     78 H31        -1.3810    5.0940    3.2950 h1        1 MOL     -0.034516
     79 H32        -2.6400    5.9830    2.0200 ho        1 MOL      0.349895
     80 H33         0.1870    6.6510    4.3970 hc        1 MOL      0.052499
     81 H34         0.2550    7.6370    2.9590 hc        1 MOL      0.052499
     82 H35        -1.2790    7.5670    3.8680 hc        1 MOL      0.052499
     83 N9         -0.7520    2.8510    2.1280 n         1 MOL     -0.521768
     84 C26        -1.5540    1.6620    1.8110 c3        1 MOL      0.022053
     85 C27        -2.7800    1.6170    2.7950 c         1 MOL      0.628871
     86 O15        -2.6180    1.4330    4.0250 o         1 MOL     -0.599869
     87 C28        -0.4810    0.4670    1.9850 c3        1 MOL      0.090856
     88 C29         0.8750    0.4720    1.3080 c3        1 MOL     -0.115605
     89 C30        -1.2020   -0.7540    1.5040 c3        1 MOL     -0.472418
     90 C31         0.7570    0.3990   -0.2090 c3        1 MOL     -0.426769
     91 H36        -0.6620    3.0140    3.1150 hn        1 MOL      0.305765
     92 H37        -1.9410    1.5900    0.7990 h1        1 MOL      0.137298
     93 H38        -0.2770    0.4460    3.0590 hc        1 MOL      0.000387
     94 H39         1.4940   -0.3550    1.6460 hc        1 MOL      0.084409
     95 H40         1.4760    1.3360    1.5880 hc        1 MOL      0.084409
     96 H41        -1.7380   -0.5230    0.5850 hc        1 MOL      0.155455
     97 H42        -0.4810   -1.5450    1.2730 hc        1 MOL      0.155455
     98 H43        -1.9250   -0.9630    2.2910 hc        1 MOL      0.155455
     99 H44         0.6050   -0.6540   -0.4690 hc        1 MOL      0.118800
    100 H45         0.0120    1.0820   -0.6210 hc        1 MOL      0.118800
    101 H46         1.6520    0.6850   -0.7610 hc        1 MOL      0.118800
    102 N10        -4.0300    1.7390    2.3870 n         1 MOL     -0.530709
    103 C32        -4.5090    2.0500    1.0040 c3        1 MOL      0.201653
    104 C33        -6.0650    1.7890    0.8530 c         1 MOL      0.396035
    105 O16        -6.7780    1.7240    1.8970 o         1 MOL     -0.521808
    106 C34        -4.3140    3.5440    0.6510 c3        1 MOL      0.012256
    107 C35        -4.7290    4.4260    1.7560 c         1 MOL      0.734819
    108 O17        -5.9040    4.7740    1.8450 o         1 MOL     -0.711349
    109 O18        -3.8650    4.8380    2.5510 o         1 MOL     -0.711349
    110 H47        -4.6960    1.6670    3.1490 hn        1 MOL      0.321274
    111 H48        -4.1160    1.3510    0.2560 h1        1 MOL     -0.039502
    112 H49        -4.9270    3.7500   -0.2230 hc        1 MOL     -0.037142
    113 H50        -3.2650    3.7190    0.4170 hc        1 MOL     -0.037142
    114 N11        -6.5780    1.5610   -0.3130 n         1 MOL     -0.289544
    115 C36        -7.9370    1.0750   -0.5520 c3        1 MOL      0.225028
    116 C37        -8.0180    0.3670   -1.9260 c         1 MOL      0.272760
    117 O19        -7.3710    0.8280   -2.9050 o         1 MOL     -0.479361
    118 C38        -8.9480    2.2220   -0.5170 c3        1 MOL     -0.415076
    119 C39       -10.3430    1.6980   -0.7220 ca        1 MOL      0.232249
    120 C40       -10.8400    1.5560   -2.0160 ca        1 MOL     -0.213333
    121 C41       -11.0240    1.1150    0.3600 ca        1 MOL     -0.213333
    122 C42       -12.0050    0.7820   -2.2340 ca        1 MOL     -0.106136
    123 C43       -12.2300    0.5000    0.2430 ca        1 MOL     -0.106136
    124 C44       -12.6950    0.2700   -1.0900 ca        1 MOL     -0.158129
    125 H51        -5.9550    1.6090   -1.1070 hn        1 MOL      0.264812
    126 H52        -8.2160    0.3470    0.2060 h1        1 MOL      0.047690
    127 H53        -8.7230    2.9700   -1.2780 hc        1 MOL      0.146740
    128 H54        -8.9600    2.6270    0.4900 hc        1 MOL      0.146740
    129 H55       -10.2500    1.7910   -2.8870 ha        1 MOL      0.141676
    130 H56       -10.5890    1.3000    1.3290 ha        1 MOL      0.141676
    131 H57       -12.3240    0.5480   -3.2360 ha        1 MOL      0.114229
    132 H58       -12.5900   -0.1190    1.0460 ha        1 MOL      0.114229
    133 H59       -13.5440   -0.3670   -1.2990 ha        1 MOL      0.086794
    134 N12        -8.7840   -0.7410   -2.1390 n         1 MOL      0.075016
    135 C45        -9.4200   -1.6130   -1.0890 c3        1 MOL     -0.009341
    136 C46        -8.5500   -2.3780   -0.0870 c         1 MOL      0.562867
    137 O20        -8.6340   -2.2800    1.0950 o         1 MOL     -0.552307
    138 C47       -10.4350   -2.5010   -1.7750 c3        1 MOL     -0.175918
    139 C48        -9.8400   -2.6770   -3.2080 c3        1 MOL      0.065814
    140 C49        -9.2450   -1.2440   -3.4230 c3        1 MOL     -0.382083
    141 H60        -9.9880   -0.9960   -0.3870 h1        1 MOL      0.053708
    142 H61       -10.6080   -3.5020   -1.3520 hc        1 MOL      0.069467
    143 H62       -11.3850   -2.0010   -1.9480 hc        1 MOL      0.069467
    144 H63        -9.0530   -3.4390   -3.1190 hc        1 MOL      0.011552
    145 H64       -10.6720   -2.9050   -3.8640 hc        1 MOL      0.011552
    146 H65        -8.3730   -1.4590   -4.0560 h1        1 MOL      0.142618
    147 H66       -10.0330   -0.5840   -3.7760 h1        1 MOL      0.142618
    148 N13        -7.5370   -3.0850   -0.6300 n         1 MOL     -0.492340
    149 C50        -6.4970   -3.7890    0.1440 c3        1 MOL      0.322710
    150 C51        -6.8870   -5.3040    0.4380 c         1 MOL      0.365473
    151 O21        -6.9460   -6.1420   -0.4370 o         1 MOL     -0.562918
    152 C52        -5.1610   -3.7050   -0.6150 c3        1 MOL     -0.328533
    153 C53        -4.4380   -2.3520   -0.5910 c3        1 MOL      0.063578
    154 C54        -3.4080   -2.2340   -1.6930 c         1 MOL      0.705298
    155 O22        -2.7110   -3.2090   -2.0920 o         1 MOL     -0.691372
    156 O23        -3.2860   -1.1230   -2.2860 o         1 MOL     -0.691372
    157 H67        -7.5580   -3.3570   -1.5960 hn        1 MOL      0.342108
    158 H68        -6.3070   -3.2420    1.0640 h1        1 MOL      0.070475
    159 H69        -5.2540   -4.0150   -1.6550 hc        1 MOL      0.077275
    160 H70        -4.5720   -4.4400   -0.0760 hc        1 MOL      0.077275
    161 H71        -3.9530   -2.1160    0.3600 hc        1 MOL     -0.070565
    162 H72        -5.2650   -1.6550   -0.7250 hc        1 MOL     -0.070565
    163 N14        -7.3710   -5.6340    1.6080 n         1 MOL     -0.301909
    164 C55        -7.6680   -4.7880    2.8060 c3        1 MOL     -0.209172
    165 H73        -6.7440   -4.5980    3.3530 h1        1 MOL      0.095062
    166 H74        -8.1010   -3.8410    2.4850 h1        1 MOL      0.095062
    167 H75        -8.3710   -5.3100    3.4540 h1        1 MOL      0.095062
    168 H76        -7.7360   -6.5840    1.6550 hn        1 MOL      0.257001
    169 Ca1         7.6470   -0.3930    0.5420 Ca        1 MOL      1.783071
    170 O24         9.5220   -0.5980    2.7750 oh        1 MOL     -0.820226
    171 H77        10.4680   -0.5350    2.9160 ho        1 MOL      0.395266
    172 H78         9.1530   -0.6630    3.6640 ho        1 MOL      0.395266
    173 O25         6.5670    1.4330    2.1780 oh        1 MOL     -0.820226
    174 H79         7.2490    2.0090    2.5320 ho        1 MOL      0.395266
    175 H80         5.7440    1.8210    2.4540 ho        1 MOL      0.395266
    176 O26         9.7920   -1.2920   -0.9480 oh        1 MOL     -0.820226
    177 H81        10.3760   -2.0310   -0.7530 ho        1 MOL      0.395266
    178 H82        10.1850   -0.8810   -1.7190 ho        1 MOL      0.395266
    179 O27         9.2930    1.8950    0.2860 oh        1 MOL     -0.820226
    180 H83         8.9300    2.6390   -0.1780 ho        1 MOL      0.395266
    181 H84        10.0300    1.6030   -0.2550 ho        1 MOL      0.395266
@<TRIPOS>BOND
     1    1    2 1   
     2    1    4 1   
     3    1    5 1   
     4    1    6 1   
     5    2    3 2   
     6    2    7 1   
     7    7    8 1   
     8    7   15 1   
     9    8    9 1   
    10    8   11 1   
    11    8   16 1   
    12    9   10 2   
    13    9   19 1   
    14   11   12 1   
    15   11   17 1   
    16   11   18 1   
    17   12   13 1   
    18   12   14 1   
    19   19   20 1   
    20   19   24 1   
    21   20   21 1   
    22   20   23 1   
    23   20   25 1   
    24   21   22 2   
    25   21   29 1   
    26   23   26 1   
    27   23   27 1   
    28   23   28 1   
    29   29   30 1   
    30   29   37 1   
    31   30   31 1   
    32   30   33 1   
    33   30   38 1   
    34   31   32 2   
    35   31   41 1   
    36   33   34 1   
    37   33   39 1   
    38   33   40 1   
    39   34   35 1   
    40   34   36 1   
    41   41   42 1   
    42   41   45 1   
    43   42   43 1   
    44   42   46 1   
    45   42   47 1   
    46   43   44 2   
    47   43   48 1   
    48   48   49 1   
    49   48   56 1   
    50   49   50 1   
    51   49   52 1   
    52   49   57 1   
    53   50   51 2   
    54   50   62 1   
    55   52   53 1   
    56   52   58 1   
    57   52   59 1   
    58   53   54 1   
    59   53   55 2   
    60   54   60 1   
    61   54   61 1   
    62   62   63 1   
    63   62   66 1   
    64   63   64 1   
    65   63   67 1   
    66   63   68 1   
    67   64   65 2   
    68   64   69 1   
    69   69   70 1   
    70   69   76 1   
    71   70   71 1   
    72   70   73 1   
    73   70   77 1   
    74   71   72 2   
    75   71   83 1   
    76   73   74 1   
    77   73   75 1   
    78   73   78 1   
    79   74   80 1   
    80   74   81 1   
    81   74   82 1   
    82   75   79 1   
    83   83   84 1   
    84   83   91 1   
    85   84   85 1   
    86   84   87 1   
    87   84   92 1   
    88   85   86 2   
    89   85  102 1   
    90   87   88 1   
    91   87   89 1   
    92   87   93 1   
    93   88   90 1   
    94   88   94 1   
    95   88   95 1   
    96   89   96 1   
    97   89   97 1   
    98   89   98 1   
    99   90   99 1   
   100   90  100 1   
   101   90  101 1   
   102  102  103 1   
   103  102  110 1   
   104  103  104 1   
   105  103  106 1   
   106  103  111 1   
   107  104  105 2   
   108  104  114 1   
   109  106  107 1   
   110  106  112 1   
   111  106  113 1   
   112  107  108 1   
   113  107  109 1   
   114  114  115 1   
   115  114  125 1   
   116  115  116 1   
   117  115  118 1   
   118  115  126 1   
   119  116  117 2   
   120  116  134 1   
   121  118  119 1   
   122  118  127 1   
   123  118  128 1   
   124  119  120 ar  
   125  119  121 ar  
   126  120  122 ar  
   127  120  129 1   
   128  121  123 ar  
   129  121  130 1   
   130  122  124 ar  
   131  122  131 1   
   132  123  124 ar  
   133  123  132 1   
   134  124  133 1   
   135  134  135 1   
   136  134  140 1   
   137  135  136 1   
   138  135  138 1   
   139  135  141 1   
   140  136  137 2   
   141  136  148 1   
   142  138  139 1   
   143  138  142 1   
   144  138  143 1   
   145  139  140 1   
   146  139  144 1   
   147  139  145 1   
   148  140  146 1   
   149  140  147 1   
   150  148  149 1   
   151  148  157 1   
   152  149  150 1   
   153  149  152 1   
   154  149  158 1   
   155  150  151 2   
   156  150  163 1   
   157  152  153 1   
   158  152  159 1   
   159  152  160 1   
   160  153  154 1   
   161  153  161 1   
   162  153  162 1   
   163  154  155 1   
   164  154  156 1   
   165  163  164 1   
   166  163  168 1   
   167  164  165 1   
   168  164  166 1   
   169  164  167 1   
   170  170  171 1   
   171  170  172 1   
   172  173  174 1   
   173  173  175 1   
   174  176  177 1   
   175  176  178 1   
   176  179  180 1   
   177  179  181 1   
@<TRIPOS>SUBSTRUCTURE
     1 MOL         1 TEMP              0 ****  ****    0 ROOT
