@<TRIPOS>MOLECULE
MOL
  192   187     1     0     0
SMALL
resp


@<TRIPOS>ATOM
      1 C1         -6.1180   -4.8520    2.7540 c3        1 MOL     -0.058722
      2 C2         -4.8860   -4.2180    2.0780 c         1 MOL      0.762506
      3 O1         -4.3230   -3.2980    2.6700 o         1 MOL     -0.531801
      4 H1         -6.8290   -5.1680    1.9900 hc        1 MOL     -0.017835
      5 H2         -5.8080   -5.7180    3.3400 hc        1 MOL     -0.017835
      6 H3         -6.5900   -4.1200    3.4090 hc        1 MOL     -0.017835
      7 N1         -4.6040   -4.6320    0.8160 n         1 MOL     -0.774022
      8 C3         -3.5900   -4.1370   -0.0860 c3        1 MOL      0.217473
      9 C4         -2.1290   -4.0560    0.4120 c         1 MOL      0.450236
     10 O2         -1.3660   -3.1480   -0.0480 o         1 MOL     -0.523686
     11 C5         -4.0810   -2.7340   -0.5970 c3        1 MOL     -0.429884
     12 C6         -5.5880   -2.7150   -0.9550 c         1 MOL      0.682680
     13 O3         -6.0540   -3.5320   -1.7950 o         1 MOL     -0.702389
     14 O4         -6.3230   -1.8500   -0.4450 o         1 MOL     -0.702389
     15 H4         -5.0050   -5.5450    0.6080 hn        1 MOL      0.363862
     16 H5         -3.5520   -4.7910   -0.9530 h1        1 MOL      0.065743
     17 H6         -3.4630   -2.5050   -1.4580 hc        1 MOL      0.154558
     18 H7         -3.9450   -1.9500    0.1520 hc        1 MOL      0.154558
     19 N2         -1.6840   -4.8670    1.3980 n         1 MOL     -0.447483
     20 C7         -0.2320   -4.7960    1.8160 c3        1 MOL      0.083689
     21 C8          0.5310   -6.0040    1.1770 c         1 MOL      0.464084
     22 O5          0.2800   -7.1650    1.3970 o         1 MOL     -0.589954
     23 C9         -0.2720   -4.8520    3.3380 c3        1 MOL      0.322105
     24 C10        -1.1920   -3.7990    4.0020 c3        1 MOL     -0.082217
     25 C11         1.1400   -4.7130    3.9690 c3        1 MOL     -0.470888
     26 C12        -2.0860   -4.2370    5.0970 c3        1 MOL     -0.316305
     27 H8         -2.2770   -5.6680    1.5940 hn        1 MOL      0.265832
     28 H9          0.2290   -3.8710    1.4640 h1        1 MOL      0.132546
     29 H10        -0.6540   -5.8710    3.4330 hc        1 MOL     -0.077420
     30 H11        -1.7860   -3.2910    3.2310 hc        1 MOL      0.096996
     31 H12        -0.5450   -3.0460    4.4590 hc        1 MOL      0.096996
     32 H13         1.7620   -5.6000    3.8560 hc        1 MOL      0.105917
     33 H14         1.6740   -3.9110    3.4740 hc        1 MOL      0.105917
     34 H15         0.9370   -4.4980    5.0090 hc        1 MOL      0.105917
     35 H16        -2.6910   -3.4720    5.5820 hc        1 MOL      0.070155
     36 H17        -2.8210   -4.8850    4.6070 hc        1 MOL      0.070155
     37 H18        -1.5220   -4.7890    5.8450 hc        1 MOL      0.070155
     38 N3          1.5720   -5.9230    0.3610 n         1 MOL     -0.367600
     39 C13         2.2490   -4.7740   -0.1330 c3        1 MOL      0.242210
     40 C14         2.7700   -4.9790   -1.6060 c         1 MOL      0.544643
     41 O6          2.3630   -6.0310   -2.1680 o         1 MOL     -0.605625
     42 C15         3.4880   -4.4780    0.7640 c3        1 MOL     -0.339659
     43 C16         4.2620   -3.1750    0.3340 c         1 MOL      0.688369
     44 O7          5.4730   -3.2410   -0.0670 o         1 MOL     -0.627917
     45 O8          3.5650   -2.1630    0.1480 o         1 MOL     -0.627917
     46 H19         1.8240   -6.7850   -0.0920 hn        1 MOL      0.283073
     47 H20         1.6200   -3.8890   -0.0570 h1        1 MOL     -0.094452
     48 H21         4.1820   -5.3100    0.6760 hc        1 MOL      0.047745
     49 H22         3.1130   -4.3110    1.7800 hc        1 MOL      0.047745
     50 N4          3.5220   -4.1100   -2.2500 n         1 MOL     -0.391237
     51 C17         4.5060   -4.5020   -3.2970 c3        1 MOL      0.200219
     52 C18         5.4570   -3.3520   -3.8080 c         1 MOL      0.361413
     53 O9          5.6540   -3.3030   -5.0010 o         1 MOL     -0.538525
     54 H23         3.5840   -3.2100   -1.7900 hn        1 MOL      0.266510
     55 H24         4.0490   -4.9720   -4.1710 h1        1 MOL      0.001031
     56 H25         5.1590   -5.2510   -2.8510 h1        1 MOL      0.001031
     57 N5          5.9390   -2.4700   -2.9280 n         1 MOL     -0.173853
     58 C19         6.9240   -1.4230   -3.2790 c3        1 MOL      0.095035
     59 C20         7.8360   -1.1080   -2.1070 c         1 MOL      0.244568
     60 O10         8.9140   -0.5120   -2.3480 o         1 MOL     -0.511869
     61 C21         6.2090   -0.1000   -3.6980 c3        1 MOL     -0.069020
     62 C22         4.9900    0.1520   -2.8030 c         1 MOL      0.735462
     63 O11         5.1430    0.6780   -1.6810 o         1 MOL     -0.688905
     64 O12         3.8580   -0.0620   -3.3590 o         1 MOL     -0.688905
     65 H26         5.7690   -2.6920   -1.9570 hn        1 MOL      0.105448
     66 H27         7.5870   -1.7430   -4.0740 h1        1 MOL      0.049728
     67 H28         5.8920   -0.1650   -4.7410 hc        1 MOL     -0.001729
     68 H29         6.8780    0.7420   -3.5450 hc        1 MOL     -0.001729
     69 N6          7.5280   -1.4690   -0.8110 n         1 MOL     -0.069076
     70 C23         8.4600   -1.1340    0.3020 c3        1 MOL     -0.317615
     71 C24         8.6080    0.3260    0.6950 c         1 MOL      0.488543
     72 O13         9.5070    0.7160    1.4670 o         1 MOL     -0.589316
     73 H30         6.7250   -2.0590   -0.6750 hn        1 MOL      0.153280
     74 H31         9.4410   -1.4860   -0.0150 h1        1 MOL      0.121946
     75 H32         8.1770   -1.7210    1.1800 h1        1 MOL      0.121946
     76 N7          7.7500    1.0900    0.0440 n         1 MOL      0.055113
     77 C25         7.5510    2.4900    0.1270 c3        1 MOL     -0.197765
     78 C26         7.0290    3.0150    1.4540 c         1 MOL      0.603033
     79 O14         7.2310    4.1820    1.8170 o         1 MOL     -0.548615
     80 C27         8.6190    3.2850   -0.6350 c3        1 MOL      0.135715
     81 C28         8.8670    2.8450   -2.1130 c3        1 MOL     -0.026340
     82 C29         9.8620    3.7550   -2.8920 c         1 MOL      0.571408
     83 N8         10.4280    3.2740   -3.9820 n         1 MOL     -0.765407
     84 O15        10.0010    4.9490   -2.5910 o         1 MOL     -0.571288
     85 H33         7.0440    0.5540   -0.4510 hn        1 MOL      0.098663
     86 H34         6.7220    2.7850   -0.5100 h1        1 MOL      0.120941
     87 H35         9.5360    3.2260   -0.0490 hc        1 MOL     -0.029122
     88 H36         8.3150    4.3360   -0.6060 hc        1 MOL     -0.029122
     89 H37         7.8620    2.8260   -2.5410 hc        1 MOL      0.011957
     90 H38         9.1960    1.8060   -2.1370 hc        1 MOL      0.011957
     91 H39        10.3620    2.2980   -4.2390 hn        1 MOL      0.347123
     92 H40        10.8330    3.9800   -4.5830 hn        1 MOL      0.347123
     93 N9          6.2750    2.1610    2.1470 n         1 MOL     -0.393739
     94 C30         5.6770    2.3390    3.4910 c3        1 MOL     -0.132792
     95 C31         4.1740    2.2360    3.4610 c         1 MOL      0.656973
     96 O16         3.5440    2.6050    4.4620 o         1 MOL     -0.610911
     97 C32         6.2750    1.1870    4.4220 c3        1 MOL      0.135471
     98 C33         5.9660   -0.2210    3.9000 c3        1 MOL     -0.145996
     99 C34         7.8000    1.2790    4.5840 c3        1 MOL     -0.145996
    100 H41         6.0560    1.2490    1.7700 hn        1 MOL      0.262141
    101 H42         5.9310    3.3070    3.9160 h1        1 MOL      0.114037
    102 H43         5.8230    1.1220    5.4090 hc        1 MOL     -0.008572
    103 H44         6.2360   -0.9090    4.7160 hc        1 MOL      0.032824
    104 H45         4.9060   -0.3320    3.6530 hc        1 MOL      0.032824
    105 H46         6.5670   -0.4920    3.0360 hc        1 MOL      0.032824
    106 H47         8.1380    0.3640    5.0670 hc        1 MOL      0.032824
    107 H48         8.2360    1.3190    3.5800 hc        1 MOL      0.032824
    108 H49         8.2120    2.1080    5.1510 hc        1 MOL      0.032824
    109 N10         3.4730    1.6430    2.4760 n         1 MOL     -0.608269
    110 C35         2.0810    1.3500    2.4080 c3        1 MOL      0.552913
    111 C36         1.3630    1.8630    1.1320 c         1 MOL      0.314170
    112 O17         1.9600    2.2170    0.1460 o         1 MOL     -0.477700
    113 C37         1.9540   -0.1560    2.6740 c3        1 MOL      0.045606
    114 C38         0.5920   -0.7280    2.2010 c         1 MOL      0.228604
    115 N11         0.5200   -1.4530    1.1290 n         1 MOL     -0.542949
    116 O18        -0.4220   -0.4530    2.8510 o         1 MOL     -0.558578
    117 H50         4.0320    1.2360    1.7540 hn        1 MOL      0.240092
    118 H51         1.5900    1.8430    3.2530 h1        1 MOL     -0.026019
    119 H52         2.0310   -0.2140    3.7610 hc        1 MOL      0.007356
    120 H53         2.7140   -0.8160    2.2700 hc        1 MOL      0.007356
    121 H54         1.2990   -1.6950    0.5350 hn        1 MOL      0.359213
    122 H55        -0.4230   -1.7480    0.9090 hn        1 MOL      0.359213
    123 N12         0.0050    1.8670    1.1230 n         1 MOL     -0.470749
    124 C39        -0.8170    2.2910   -0.0110 c3        1 MOL      0.386553
    125 C40        -2.0060    3.0780    0.5510 c         1 MOL      0.453242
    126 O19        -2.4390    2.8140    1.6770 o         1 MOL     -0.551283
    127 C41        -1.2110    1.0100   -0.7920 c3        1 MOL     -0.276887
    128 C42        -2.1060    1.2990   -1.9960 ca        1 MOL      0.032968
    129 C43        -1.5410    1.8290   -3.1560 ca        1 MOL     -0.081546
    130 C44        -3.4190    0.7700   -2.0070 ca        1 MOL     -0.081546
    131 C45        -2.2430    1.7540   -4.3750 ca        1 MOL     -0.281665
    132 C46        -4.1750    0.8690   -3.1620 ca        1 MOL     -0.281665
    133 C47        -3.6110    1.3200   -4.3670 ca        1 MOL      0.290900
    134 O20        -4.4220    1.4690   -5.4840 oh        1 MOL     -0.527721
    135 H56        -0.4640    1.5020    1.9480 hn        1 MOL      0.259640
    136 H57        -0.1840    2.9800   -0.5730 h1        1 MOL      0.027664
    137 H58        -1.6160    0.2220   -0.1660 hc        1 MOL      0.107842
    138 H59        -0.3070    0.5630   -1.2110 hc        1 MOL      0.107842
    139 H60        -0.5170    2.1580   -3.1840 ha        1 MOL      0.135728
    140 H61        -3.7750    0.2130   -1.1500 ha        1 MOL      0.135728
    141 H62        -1.8590    2.2880   -5.2360 ha        1 MOL      0.161069
    142 H63        -5.2160    0.5800   -3.2090 ha        1 MOL      0.161069
    143 H64        -5.3430    1.2380   -5.3380 ho        1 MOL      0.360088
    144 N13        -2.3880    4.1990   -0.1160 n         1 MOL     -0.677383
    145 C48        -3.2980    5.1840    0.4660 c3        1 MOL      0.527526
    146 C49        -4.5620    5.2800   -0.4070 c         1 MOL      0.466492
    147 O21        -4.4740    6.0510   -1.4220 o         1 MOL     -0.516387
    148 C50        -2.5470    6.5220    0.6560 c3        1 MOL      0.097316
    149 C51        -3.3990    7.6290    1.1910 c3        1 MOL     -0.276202
    150 C52        -3.8540    8.6480    0.1460 c         1 MOL      0.707923
    151 O22        -3.0360    8.9370   -0.8030 o         1 MOL     -0.639192
    152 O23        -4.9720    9.1960    0.1550 o         1 MOL     -0.639192
    153 H65        -2.0810    4.3230   -1.0740 hn        1 MOL      0.284745
    154 H66        -3.4960    4.8430    1.4830 h1        1 MOL     -0.023877
    155 H67        -2.0620    6.6960   -0.3120 hc        1 MOL     -0.019573
    156 H68        -1.6930    6.3100    1.3010 hc        1 MOL     -0.019573
    157 H69        -2.9170    8.1380    2.0210 hc        1 MOL      0.031854
    158 H70        -4.3050    7.1440    1.5700 hc        1 MOL      0.031854
    159 N14        -5.6320    4.5260   -0.1660 n         1 MOL     -0.491063
    160 C53        -5.7860    3.3470    0.6710 c3        1 MOL      0.012213
    161 C54        -5.6260    3.5370    2.2150 c         1 MOL      0.490953
    162 O24        -5.8270    4.6330    2.7100 o         1 MOL     -0.525796
    163 C55        -7.2220    2.8820    0.4100 c3        1 MOL     -0.226371
    164 C56        -7.3250    2.0250   -0.8900 c3        1 MOL      0.156971
    165 C57        -8.7110    1.4640   -1.2070 c         1 MOL      0.719030
    166 O25        -9.7040    2.2330   -1.4920 o         1 MOL     -0.741187
    167 O26        -8.8040    0.2290   -0.9030 o         1 MOL     -0.741187
    168 H71        -6.4420    4.5720   -0.7750 hn        1 MOL      0.303793
    169 H72        -5.1000    2.5600    0.3570 h1        1 MOL      0.025429
    170 H73        -7.8550    3.7480    0.2000 hc        1 MOL      0.066678
    171 H74        -7.6080    2.2370    1.1920 hc        1 MOL      0.066678
    172 H75        -6.5860    1.2370   -0.7410 hc        1 MOL     -0.043846
    173 H76        -7.0620    2.5540   -1.8020 hc        1 MOL     -0.043846
    174 N15        -5.3880    2.4150    2.9270 n         1 MOL     -0.128827
    175 C58        -5.3460    2.1870    4.4010 c3        1 MOL     -0.442766
    176 H77        -4.4480    2.6480    4.8140 h1        1 MOL      0.157163
    177 H78        -6.2270    2.6320    4.8630 h1        1 MOL      0.157163
    178 H79        -5.3300    1.1170    4.6040 h1        1 MOL      0.157163
    179 H80        -5.3350    1.5480    2.4150 hn        1 MOL      0.218072
    180 Ca1        -8.7560   -2.3550   -1.0880 Ca        1 MOL      1.596615
    181 O27        -8.3790   -1.1630    1.4570 oh        1 MOL     -1.009876
    182 H81        -7.4290   -1.1660    1.5470 ho        1 MOL      0.469065
    183 H82        -8.5570   -0.4270    0.8750 ho        1 MOL      0.469065
    184 O28       -10.6110   -1.9300   -2.9470 oh        1 MOL     -1.009876
    185 H83       -10.2740   -1.7560   -3.8230 ho        1 MOL      0.469065
    186 H84       -11.3450   -1.3340   -2.8410 ho        1 MOL      0.469065
    187 O29        -7.5990   -0.9760   -3.2940 oh        1 MOL     -1.009876
    188 H85        -6.8680   -1.5170   -3.6010 ho        1 MOL      0.469065
    189 H86        -7.6200   -0.2300   -3.8890 ho        1 MOL      0.469065
    190 O30        -8.6210   -4.3470   -2.8280 oh        1 MOL     -1.009876
    191 H87        -7.8500   -4.9160   -2.8360 ho        1 MOL      0.469065
    192 H88        -9.1500   -4.6430   -3.5650 ho        1 MOL      0.469065
@<TRIPOS>BOND
     1    1    2 1   
     2    1    4 1   
     3    1    5 1   
     4    1    6 1   
     5    2    3 2   
     6    2    7 1   
     7    7    8 1   
     8    7   15 1   
     9    8    9 1   
    10    8   11 1   
    11    8   16 1   
    12    9   10 2   
    13    9   19 1   
    14   11   12 1   
    15   11   17 1   
    16   11   18 1   
    17   12   13 1   
    18   12   14 1   
    19   19   20 1   
    20   19   27 1   
    21   20   21 1   
    22   20   23 1   
    23   20   28 1   
    24   21   22 2   
    25   21   38 1   
    26   23   24 1   
    27   23   25 1   
    28   23   29 1   
    29   24   26 1   
    30   24   30 1   
    31   24   31 1   
    32   25   32 1   
    33   25   33 1   
    34   25   34 1   
    35   26   35 1   
    36   26   36 1   
    37   26   37 1   
    38   38   39 1   
    39   38   46 1   
    40   39   40 1   
    41   39   42 1   
    42   39   47 1   
    43   40   41 2   
    44   40   50 1   
    45   42   43 1   
    46   42   48 1   
    47   42   49 1   
    48   43   44 1   
    49   43   45 1   
    50   50   51 1   
    51   50   54 1   
    52   51   52 1   
    53   51   55 1   
    54   51   56 1   
    55   52   53 2   
    56   52   57 1   
    57   57   58 1   
    58   57   65 1   
    59   58   59 1   
    60   58   61 1   
    61   58   66 1   
    62   59   60 2   
    63   59   69 1   
    64   61   62 1   
    65   61   67 1   
    66   61   68 1   
    67   62   63 1   
    68   62   64 1   
    69   69   70 1   
    70   69   73 1   
    71   70   71 1   
    72   70   74 1   
    73   70   75 1   
    74   71   72 2   
    75   71   76 1   
    76   76   77 1   
    77   76   85 1   
    78   77   78 1   
    79   77   80 1   
    80   77   86 1   
    81   78   79 2   
    82   78   93 1   
    83   80   81 1   
    84   80   87 1   
    85   80   88 1   
    86   81   82 1   
    87   81   89 1   
    88   81   90 1   
    89   82   83 1   
    90   82   84 2   
    91   83   91 1   
    92   83   92 1   
    93   93   94 1   
    94   93  100 1   
    95   94   95 1   
    96   94   97 1   
    97   94  101 1   
    98   95   96 2   
    99   95  109 1   
   100   97   98 1   
   101   97   99 1   
   102   97  102 1   
   103   98  103 1   
   104   98  104 1   
   105   98  105 1   
   106   99  106 1   
   107   99  107 1   
   108   99  108 1   
   109  109  110 1   
   110  109  117 1   
   111  110  111 1   
   112  110  113 1   
   113  110  118 1   
   114  111  112 2   
   115  111  123 1   
   116  113  114 1   
   117  113  119 1   
   118  113  120 1   
   119  114  115 1   
   120  114  116 2   
   121  115  121 1   
   122  115  122 1   
   123  123  124 1   
   124  123  135 1   
   125  124  125 1   
   126  124  127 1   
   127  124  136 1   
   128  125  126 2   
   129  125  144 1   
   130  127  128 1   
   131  127  137 1   
   132  127  138 1   
   133  128  129 ar  
   134  128  130 ar  
   135  129  131 ar  
   136  129  139 1   
   137  130  132 ar  
   138  130  140 1   
   139  131  133 ar  
   140  131  141 1   
   141  132  133 ar  
   142  132  142 1   
   143  133  134 1   
   144  134  143 1   
   145  144  145 1   
   146  144  153 1   
   147  145  146 1   
   148  145  148 1   
   149  145  154 1   
   150  146  147 2   
   151  146  159 1   
   152  148  149 1   
   153  148  155 1   
   154  148  156 1   
   155  149  150 1   
   156  149  157 1   
   157  149  158 1   
   158  150  151 1   
   159  150  152 1   
   160  159  160 1   
   161  159  168 1   
   162  160  161 1   
   163  160  163 1   
   164  160  169 1   
   165  161  162 2   
   166  161  174 1   
   167  163  164 1   
   168  163  170 1   
   169  163  171 1   
   170  164  165 1   
   171  164  172 1   
   172  164  173 1   
   173  165  166 1   
   174  165  167 1   
   175  174  175 1   
   176  174  179 1   
   177  175  176 1   
   178  175  177 1   
   179  175  178 1   
   180  181  182 1   
   181  181  183 1   
   182  184  185 1   
   183  184  186 1   
   184  187  188 1   
   185  187  189 1   
   186  190  191 1   
   187  190  192 1   
@<TRIPOS>SUBSTRUCTURE
     1 MOL         1 TEMP              0 ****  ****    0 ROOT
