@<TRIPOS>MOLECULE
MOL
  189   185     1     0     0
SMALL
resp


@<TRIPOS>ATOM
      1 C1          4.2130    3.8160   -3.5130 c3        1 MOL     -0.528528
      2 C2          5.0530    3.2590   -2.3140 c         1 MOL      0.800515
      3 O1          4.4930    2.8640   -1.3480 o         1 MOL     -0.543843
      4 H1          3.1840    3.4650   -3.4290 hc        1 MOL      0.128437
      5 H2          4.2260    4.9050   -3.4920 hc        1 MOL      0.128437
      6 H3          4.6410    3.4640   -4.4520 hc        1 MOL      0.128437
      7 N1          6.3360    2.9860   -2.5880 n         1 MOL     -0.690443
      8 C3          7.1240    1.9750   -1.9010 c3        1 MOL      0.363411
      9 C4          6.3910    0.6170   -1.6350 c         1 MOL      0.317411
     10 O2          5.8430    0.3750   -0.5930 o         1 MOL     -0.576636
     11 C5          8.0010    2.4810   -0.7370 c3        1 MOL     -0.198401
     12 C6          7.2620    3.4180    0.1810 c         1 MOL      0.734924
     13 O3          6.5090    2.8560    1.0050 o         1 MOL     -0.728756
     14 O4          7.2810    4.6390    0.0280 o         1 MOL     -0.728756
     15 H4          6.8100    3.4580   -3.3430 hn        1 MOL      0.336353
     16 H5          7.9030    1.7570   -2.6250 h1        1 MOL     -0.031444
     17 H6          8.8650    3.0670   -1.0680 hc        1 MOL      0.026352
     18 H7          8.2920    1.6300   -0.1270 hc        1 MOL      0.026352
     19 N2          6.2110   -0.1600   -2.7110 n         1 MOL     -0.391128
     20 C7          5.5320   -1.4710   -2.6630 c3        1 MOL      0.199025
     21 C8          6.2730   -2.5380   -1.8420 c         1 MOL      0.280100
     22 O5          6.6270   -3.5250   -2.4540 o         1 MOL     -0.543416
     23 C9          4.0320   -1.2870   -2.3920 c3        1 MOL      0.272929
     24 C10         3.0230   -2.4670   -2.5440 c3        1 MOL     -0.158877
     25 C11         3.3680   -0.2180   -3.2700 c3        1 MOL     -0.371394
     26 C12         2.8110   -3.0160   -3.9570 c3        1 MOL     -0.280844
     27 H8          6.5520    0.1910   -3.5910 hn        1 MOL      0.256459
     28 H9          5.4550   -1.8240   -3.6890 h1        1 MOL     -0.013844
     29 H10         4.0240   -0.9000   -1.3780 hc        1 MOL     -0.201551
     30 H11         2.1130   -2.0450   -2.1340 hc        1 MOL      0.152499
     31 H12         3.3770   -3.2840   -1.9170 hc        1 MOL      0.152499
     32 H13         3.4650    0.7820   -2.8520 hc        1 MOL      0.084066
     33 H14         3.7380   -0.1040   -4.2940 hc        1 MOL      0.084066
     34 H15         2.2940   -0.3480   -3.2510 hc        1 MOL      0.084066
     35 H16         2.2640   -3.9510   -3.8870 hc        1 MOL      0.062723
     36 H17         2.3350   -2.3240   -4.6600 hc        1 MOL      0.062723
     37 H18         3.7200   -3.3970   -4.4020 hc        1 MOL      0.062723
     38 N3          6.4150   -2.3450   -0.5530 n         1 MOL     -0.071647
     39 C13         7.1590   -3.2370    0.3820 c3        1 MOL      0.131689
     40 C14         6.5380   -4.6050    0.5680 c         1 MOL      0.481785
     41 O6          7.2690   -5.5660    0.5250 o         1 MOL     -0.585347
     42 C15         7.3620   -2.5200    1.7270 c3        1 MOL     -0.146456
     43 C16         8.1160   -1.2370    1.6270 c         1 MOL      0.808221
     44 O7          8.0740   -0.4630    2.6370 o         1 MOL     -0.731957
     45 O8          8.8750   -1.0460    0.7000 o         1 MOL     -0.731957
     46 H19         6.2940   -1.4360   -0.1200 hn        1 MOL      0.249666
     47 H20         8.1620   -3.4230   -0.0070 h1        1 MOL      0.018854
     48 H21         7.9970   -3.1460    2.3480 hc        1 MOL      0.019927
     49 H22         6.3770   -2.4280    2.1970 hc        1 MOL      0.019927
     50 N4          5.2240   -4.8340    0.7340 n         1 MOL     -0.456914
     51 C17         4.1100   -3.9120    0.8970 c3        1 MOL      0.279891
     52 C18         2.9950   -4.6090    1.6000 c         1 MOL      0.445922
     53 O9          2.6830   -5.7690    1.3220 o         1 MOL     -0.568936
     54 H23         5.0000   -5.8180    0.7000 hn        1 MOL      0.273477
     55 H24         3.6120   -3.7800   -0.0680 h1        1 MOL     -0.063774
     56 H25         4.2990   -2.9300    1.3200 h1        1 MOL     -0.063774
     57 N5          2.2430   -3.8960    2.4830 n         1 MOL     -0.450815
     58 C19         2.2000   -2.5270    2.9740 c3        1 MOL      0.188494
     59 C20         2.3760   -1.4000    1.8650 c         1 MOL      0.053686
     60 O10         3.4340   -0.8210    1.6780 o         1 MOL     -0.318737
     61 C21         3.2440   -2.4650    4.0730 c3        1 MOL     -0.362875
     62 C22         3.1470   -1.1590    4.8900 c         1 MOL      0.746930
     63 O11         4.1860   -0.9120    5.5180 o         1 MOL     -0.700495
     64 O12         2.1420   -0.4210    4.8590 o         1 MOL     -0.700495
     65 H26         1.4610   -4.4360    2.8220 hn        1 MOL      0.279090
     66 H27         1.2440   -2.4130    3.4850 h1        1 MOL      0.044150
     67 H28         4.2360   -2.6390    3.6790 hc        1 MOL      0.097356
     68 H29         3.1050   -3.3020    4.7610 hc        1 MOL      0.097356
     69 N6          1.4550   -1.1610    1.0030 n         1 MOL     -0.061442
     70 C23        -0.0030   -1.3580    1.1320 c3        1 MOL     -0.005957
     71 C24        -0.4870   -2.6820    0.5510 c         1 MOL      0.491580
     72 O13         0.2750   -3.2670   -0.2350 o         1 MOL     -0.520774
     73 H30         1.6690   -0.4810    0.2920 hn        1 MOL      0.149731
     74 H31        -0.5730   -0.5690    0.6470 h1        1 MOL      0.028694
     75 H32        -0.3290   -1.3340    2.1810 h1        1 MOL      0.028694
     76 N7         -1.7590   -3.0520    0.7450 n         1 MOL     -0.294090
     77 C25        -2.3150   -4.3230    0.1490 c3        1 MOL     -0.202385
     78 C26        -3.1270   -4.1800   -1.1280 c         1 MOL      0.604330
     79 O14        -3.4190   -5.1990   -1.7180 o         1 MOL     -0.548462
     80 C27        -3.1520   -4.9510    1.2720 c3        1 MOL     -0.026825
     81 C28        -4.3190   -4.2690    1.9460 c3        1 MOL     -0.242087
     82 C29        -5.5070   -4.1400    1.0510 c         1 MOL      0.427503
     83 N8         -6.5420   -4.9940    1.1510 n         1 MOL     -0.687957
     84 O15        -5.5640   -3.2840    0.1740 o         1 MOL     -0.342992
     85 H33        -2.3330   -2.4990    1.3670 hn        1 MOL      0.249633
     86 H34        -1.4190   -4.9210   -0.0600 h1        1 MOL      0.175304
     87 H35        -2.3740   -5.1400    2.0180 hc        1 MOL      0.059404
     88 H36        -3.5590   -5.8730    0.8640 hc        1 MOL      0.059404
     89 H37        -3.9860   -3.2870    2.2810 hc        1 MOL      0.084990
     90 H38        -4.6410   -4.8800    2.7870 hc        1 MOL      0.084990
     91 H39        -6.4480   -5.8650    1.6540 hn        1 MOL      0.352429
     92 H40        -7.3760   -4.7950    0.6190 hn        1 MOL      0.352429
     93 N9         -3.1970   -2.9710   -1.6660 n         1 MOL     -0.290708
     94 C30        -3.5940   -2.6200   -3.0110 c3        1 MOL     -0.007578
     95 C31        -4.9230   -1.8130   -3.1530 c         1 MOL      0.281753
     96 O16        -5.3370   -1.4210   -4.2420 o         1 MOL     -0.508179
     97 C32        -2.4690   -1.9920   -3.7940 c3        1 MOL      0.278011
     98 C33        -1.1380   -2.7750   -3.7190 c3        1 MOL     -0.226613
     99 C34        -2.2140   -0.5760   -3.2830 c3        1 MOL     -0.226613
    100 H41        -2.8580   -2.2530   -1.0360 hn        1 MOL      0.159607
    101 H42        -3.7280   -3.5810   -3.5140 h1        1 MOL      0.081873
    102 H43        -2.8340   -1.8890   -4.8170 hc        1 MOL     -0.031922
    103 H44        -0.4090   -2.4070   -4.4340 hc        1 MOL      0.048242
    104 H45        -0.7250   -2.6900   -2.7110 hc        1 MOL      0.048242
    105 H46        -1.3570   -3.8130   -3.9940 hc        1 MOL      0.048242
    106 H47        -1.4220   -0.0500   -3.8280 hc        1 MOL      0.048242
    107 H48        -3.1550   -0.0280   -3.3200 hc        1 MOL      0.048242
    108 H49        -1.9250   -0.7260   -2.2440 hc        1 MOL      0.048242
    109 N10        -5.7020   -1.6910   -2.0400 n         1 MOL      0.031491
    110 C35        -7.0370   -0.9920   -1.9810 c3        1 MOL     -0.100901
    111 C36        -7.0520    0.3880   -1.3110 c         1 MOL      0.644011
    112 O17        -8.0810    1.0550   -1.3370 o         1 MOL     -0.556381
    113 C37        -8.0540   -1.8980   -1.1850 c3        1 MOL     -0.084159
    114 C38        -8.2140   -3.2790   -1.7470 c         1 MOL      0.603665
    115 N11        -8.0750   -3.5030   -3.0180 n         1 MOL     -0.747845
    116 O18        -8.4890   -4.2510   -1.0270 o         1 MOL     -0.587608
    117 H50        -5.4220   -2.1740   -1.1990 hn        1 MOL      0.010934
    118 H51        -7.4150   -0.9070   -3.0020 h1        1 MOL      0.050942
    119 H52        -9.0650   -1.4900   -1.2190 hc        1 MOL      0.048593
    120 H53        -7.7060   -1.9830   -0.1600 hc        1 MOL      0.048593
    121 H54        -7.8430   -2.7620   -3.6650 hn        1 MOL      0.365904
    122 H55        -8.2920   -4.4280   -3.3690 hn        1 MOL      0.365904
    123 N12        -5.9420    0.7840   -0.6420 n         1 MOL     -0.611056
    124 C39        -5.8290    2.0200    0.1120 c3        1 MOL      0.406406
    125 C40        -4.4100    2.7740    0.0580 c         1 MOL      0.296207
    126 O19        -3.4010    2.0410    0.0080 o         1 MOL     -0.487136
    127 C41        -6.0720    1.8630    1.6030 c3        1 MOL     -0.163907
    128 C42        -7.2160    1.0310    2.0190 ca        1 MOL      0.067873
    129 C43        -7.0940   -0.4530    2.0270 ca        1 MOL     -0.163957
    130 C44        -8.3770    1.6440    2.5130 ca        1 MOL     -0.163957
    131 C45        -8.1100   -1.2660    2.6160 ca        1 MOL     -0.209253
    132 C46        -9.2930    0.8110    3.2470 ca        1 MOL     -0.209253
    133 C47        -9.1990   -0.5820    3.2310 ca        1 MOL      0.260622
    134 O20       -10.1700   -1.2180    4.0380 oh        1 MOL     -0.527543
    135 H56        -5.1630    0.1280   -0.6050 hn        1 MOL      0.251843
    136 H57        -6.5040    2.8230   -0.2100 h1        1 MOL     -0.027060
    137 H58        -6.1400    2.8620    2.0410 hc        1 MOL      0.076892
    138 H59        -5.1830    1.4700    2.0920 hc        1 MOL      0.076892
    139 H60        -6.3200   -0.9390    1.4440 ha        1 MOL      0.141641
    140 H61        -8.4580    2.7120    2.6850 ha        1 MOL      0.141641
    141 H62        -8.1280   -2.3410    2.6620 ha        1 MOL      0.136856
    142 H63       -10.0580    1.2590    3.8540 ha        1 MOL      0.136856
    143 H64       -10.0860   -2.1680    4.0300 ho        1 MOL      0.371385
    144 N13        -4.4120    4.0740    0.2080 n         1 MOL     -0.482998
    145 C48        -3.3470    4.9410    0.7100 c3        1 MOL      0.012028
    146 C49        -2.0400    5.0670   -0.1040 c         1 MOL      0.276208
    147 O21        -1.3900    6.1470   -0.0030 o         1 MOL     -0.423602
    148 C50        -3.1570    4.5440    2.1890 c3        1 MOL      0.108645
    149 C51        -2.3350    5.5010    3.0480 c3        1 MOL     -0.537971
    150 C52        -2.9440    6.9210    3.1300 c         1 MOL      0.814452
    151 O22        -3.9610    7.1110    3.7940 o         1 MOL     -0.752804
    152 O23        -2.5020    7.8810    2.4340 o         1 MOL     -0.752804
    153 H65        -5.3350    4.4780    0.1800 hn        1 MOL      0.322876
    154 H66        -3.7970    5.9410    0.7480 h1        1 MOL      0.146643
    155 H67        -2.7930    3.5220    2.2820 hc        1 MOL      0.007838
    156 H68        -4.1440    4.3560    2.6170 hc        1 MOL      0.007838
    157 H69        -1.3370    5.5390    2.6100 hc        1 MOL      0.123690
    158 H70        -2.3010    5.1240    4.0660 hc        1 MOL      0.123690
    159 N14        -1.6260    4.0260   -0.8250 n         1 MOL     -0.098908
    160 C53        -0.5140    4.0860   -1.7890 c3        1 MOL     -0.327056
    161 C54        -0.9320    5.0160   -2.9780 c         1 MOL      0.572234
    162 O24        -0.1290    5.5310   -3.7470 o         1 MOL     -0.556337
    163 C55        -0.2160    2.6910   -2.3860 c3        1 MOL      0.196205
    164 C56         0.1870    1.7100   -1.2810 c3        1 MOL      0.329091
    165 C57         1.4370    2.0700   -0.4480 c         1 MOL      0.395034
    166 O25         1.6310    3.1570    0.1840 o         1 MOL     -0.575340
    167 O26         2.2880    1.1550   -0.4800 o         1 MOL     -0.575340
    168 H71        -1.9960    3.1220   -0.5950 hn        1 MOL      0.238109
    169 H72         0.3760    4.4140   -1.2430 h1        1 MOL      0.177988
    170 H73         0.5710    2.7400   -3.1320 hc        1 MOL     -0.060386
    171 H74        -1.1400    2.3170   -2.8130 hc        1 MOL     -0.060386
    172 H75         0.2220    0.7230   -1.7450 hc        1 MOL     -0.103555
    173 H76        -0.6670    1.6770   -0.5970 hc        1 MOL     -0.103555
    174 N15        -2.2120    5.0460   -3.2270 n         1 MOL     -0.249231
    175 C58        -2.8780    6.0210   -4.1080 c3        1 MOL     -0.394762
    176 H77        -3.9240    5.7410   -4.2330 h1        1 MOL      0.142472
    177 H78        -2.8190    7.0140   -3.6630 h1        1 MOL      0.142472
    178 H79        -2.3860    6.0270   -5.0810 h1        1 MOL      0.142472
    179 H80        -2.8060    4.4890   -2.6290 hn        1 MOL      0.230454
    180 Ca1         4.1450    1.6820    1.0240 Ca        1 MOL      1.733549
    181 O27         2.5670    1.6210    3.2150 oh        1 MOL     -0.881264
    182 O28         5.7090    0.6870    2.9970 oh        1 MOL     -0.881264
    183 H81         2.2960    0.9400    3.8390 ho        1 MOL      0.417598
    184 H82         6.5670    0.3530    2.7720 ho        1 MOL      0.417598
    185 H83         1.8060    2.1910    3.1370 ho        1 MOL      0.417598
    186 H84         5.6890    0.7000    3.9580 ho        1 MOL      0.417598
    187 O29         3.6980    4.1180    1.9950 oh        1 MOL     -0.881264
    188 H85         2.8490    4.5220    2.2010 ho        1 MOL      0.417598
    189 H86         4.3330    4.8220    2.1080 ho        1 MOL      0.417598
@<TRIPOS>BOND
     1    1    2 1   
     2    1    4 1   
     3    1    5 1   
     4    1    6 1   
     5    2    3 2   
     6    2    7 1   
     7    7    8 1   
     8    7   15 1   
     9    8    9 1   
    10    8   11 1   
    11    8   16 1   
    12    9   10 2   
    13    9   19 1   
    14   11   12 1   
    15   11   17 1   
    16   11   18 1   
    17   12   13 1   
    18   12   14 1   
    19   19   20 1   
    20   19   27 1   
    21   20   21 1   
    22   20   23 1   
    23   20   28 1   
    24   21   22 2   
    25   21   38 1   
    26   23   24 1   
    27   23   25 1   
    28   23   29 1   
    29   24   26 1   
    30   24   30 1   
    31   24   31 1   
    32   25   32 1   
    33   25   33 1   
    34   25   34 1   
    35   26   35 1   
    36   26   36 1   
    37   26   37 1   
    38   38   39 1   
    39   38   46 1   
    40   39   40 1   
    41   39   42 1   
    42   39   47 1   
    43   40   41 2   
    44   40   50 1   
    45   42   43 1   
    46   42   48 1   
    47   42   49 1   
    48   43   44 1   
    49   43   45 1   
    50   50   51 1   
    51   50   54 1   
    52   51   52 1   
    53   51   55 1   
    54   51   56 1   
    55   52   53 2   
    56   52   57 1   
    57   57   58 1   
    58   57   65 1   
    59   58   59 1   
    60   58   61 1   
    61   58   66 1   
    62   59   60 2   
    63   59   69 1   
    64   61   62 1   
    65   61   67 1   
    66   61   68 1   
    67   62   63 1   
    68   62   64 1   
    69   69   70 1   
    70   69   73 1   
    71   70   71 1   
    72   70   74 1   
    73   70   75 1   
    74   71   72 2   
    75   71   76 1   
    76   76   77 1   
    77   76   85 1   
    78   77   78 1   
    79   77   80 1   
    80   77   86 1   
    81   78   79 2   
    82   78   93 1   
    83   80   81 1   
    84   80   87 1   
    85   80   88 1   
    86   81   82 1   
    87   81   89 1   
    88   81   90 1   
    89   82   83 1   
    90   82   84 2   
    91   83   91 1   
    92   83   92 1   
    93   93   94 1   
    94   93  100 1   
    95   94   95 1   
    96   94   97 1   
    97   94  101 1   
    98   95   96 2   
    99   95  109 1   
   100   97   98 1   
   101   97   99 1   
   102   97  102 1   
   103   98  103 1   
   104   98  104 1   
   105   98  105 1   
   106   99  106 1   
   107   99  107 1   
   108   99  108 1   
   109  109  110 1   
   110  109  117 1   
   111  110  111 1   
   112  110  113 1   
   113  110  118 1   
   114  111  112 2   
   115  111  123 1   
   116  113  114 1   
   117  113  119 1   
   118  113  120 1   
   119  114  115 1   
   120  114  116 2   
   121  115  121 1   
   122  115  122 1   
   123  123  124 1   
   124  123  135 1   
   125  124  125 1   
   126  124  127 1   
   127  124  136 1   
   128  125  126 2   
   129  125  144 1   
   130  127  128 1   
   131  127  137 1   
   132  127  138 1   
   133  128  129 ar  
   134  128  130 ar  
   135  129  131 ar  
   136  129  139 1   
   137  130  132 ar  
   138  130  140 1   
   139  131  133 ar  
   140  131  141 1   
   141  132  133 ar  
   142  132  142 1   
   143  133  134 1   
   144  134  143 1   
   145  144  145 1   
   146  144  153 1   
   147  145  146 1   
   148  145  148 1   
   149  145  154 1   
   150  146  147 2   
   151  146  159 1   
   152  148  149 1   
   153  148  155 1   
   154  148  156 1   
   155  149  150 1   
   156  149  157 1   
   157  149  158 1   
   158  150  151 1   
   159  150  152 1   
   160  159  160 1   
   161  159  168 1   
   162  160  161 1   
   163  160  163 1   
   164  160  169 1   
   165  161  162 2   
   166  161  174 1   
   167  163  164 1   
   168  163  170 1   
   169  163  171 1   
   170  164  165 1   
   171  164  172 1   
   172  164  173 1   
   173  165  166 1   
   174  165  167 1   
   175  174  175 1   
   176  174  179 1   
   177  175  176 1   
   178  175  177 1   
   179  175  178 1   
   180  181  183 1   
   181  181  185 1   
   182  182  184 1   
   183  182  186 1   
   184  187  188 1   
   185  187  189 1   
@<TRIPOS>SUBSTRUCTURE
     1 MOL         1 TEMP              0 ****  ****    0 ROOT
