@<TRIPOS>MOLECULE
MOL
  188   182     1     0     0
SMALL
resp


@<TRIPOS>ATOM
      1 C1         -5.8430    4.3460   -0.7800 c3        1 MOL     -0.343065
      2 C2         -6.8030    3.2050   -1.2020 c         1 MOL      0.608558
      3 O1         -6.3110    2.3110   -1.9200 o         1 MOL     -0.558027
      4 H1         -5.2920    4.6980   -1.6520 hc        1 MOL      0.093021
      5 H2         -6.4200    5.1710   -0.3590 hc        1 MOL      0.093021
      6 H3         -5.1420    3.9750   -0.0330 hc        1 MOL      0.093021
      7 N1         -8.0980    3.2310   -0.7920 n         1 MOL     -0.487976
      8 C3         -9.1130    2.1990   -0.9520 c3        1 MOL      0.126210
      9 C4         -8.6390    0.7480   -0.5860 c         1 MOL      0.699040
     10 O2         -7.9860    0.5920    0.4310 o         1 MOL     -0.560961
     11 C5        -10.3270    2.5450   -0.0520 c3        1 MOL     -0.308500
     12 C6        -11.4060    1.4860   -0.1970 c         1 MOL      0.648298
     13 O3        -11.9700    1.3700   -1.3420 o         1 MOL     -0.669351
     14 O4        -11.5360    0.6590    0.7200 o         1 MOL     -0.669351
     15 H4         -8.3130    4.0830   -0.2860 hn        1 MOL      0.296952
     16 H5         -9.4290    2.0690   -1.9880 h1        1 MOL      0.013960
     17 H6        -10.7580    3.4950   -0.3630 hc        1 MOL      0.102571
     18 H7        -10.0150    2.5450    0.9860 hc        1 MOL      0.102571
     19 N2         -8.9980   -0.1700   -1.3900 n         1 MOL     -0.779627
     20 C7         -8.6500   -1.6460   -1.1280 c3        1 MOL      0.394764
     21 C8         -7.2160   -2.1050   -1.2340 c         1 MOL      0.491513
     22 O5         -6.9630   -3.2910   -1.2460 o         1 MOL     -0.585753
     23 C9         -9.6830   -2.4660   -1.9100 c3        1 MOL     -0.260349
     24 C10       -11.1600   -2.2590   -1.5630 c3        1 MOL      0.140171
     25 C11       -11.4850   -2.5320   -0.0650 c3        1 MOL     -0.228153
     26 C12       -12.9960   -2.3530    0.1650 c3        1 MOL      0.024117
     27 N3        -13.5320   -1.0680   -0.2900 n4        1 MOL     -0.370131
     28 H8         -9.5910    0.0500   -2.1800 hn        1 MOL      0.411238
     29 H9         -8.8120   -1.8350   -0.0610 h1        1 MOL      0.022680
     30 H10        -9.4910   -3.5130   -1.6570 hc        1 MOL      0.065656
     31 H11        -9.4720   -2.3770   -2.9770 hc        1 MOL      0.065656
     32 H12       -11.7460   -3.0010   -2.1060 hc        1 MOL     -0.023626
     33 H13       -11.3710   -1.2220   -1.8220 hc        1 MOL     -0.023626
     34 H14       -10.9250   -1.7830    0.4860 hc        1 MOL      0.123006
     35 H15       -11.1820   -3.5640    0.0880 hc        1 MOL      0.123006
     36 H16       -13.2510   -2.2760    1.2150 hx        1 MOL      0.076531
     37 H17       -13.5290   -3.2120   -0.2450 hx        1 MOL      0.076531
     38 H18       -13.7530   -1.0620   -1.2790 hn        1 MOL      0.315143
     39 H19       -14.3170   -0.8330    0.3010 hn        1 MOL      0.315143
     40 H20       -12.8330   -0.3610   -0.1430 hn        1 MOL      0.315143
     41 N4         -6.2310   -1.2250   -1.2020 n         1 MOL     -0.419848
     42 C13        -4.7880   -1.4680   -1.1590 c3        1 MOL      0.039228
     43 C14        -4.4200   -2.4490   -0.0340 c         1 MOL      0.626610
     44 O6         -4.7480   -2.2000    1.1620 o         1 MOL     -0.509100
     45 C15        -4.1010   -0.0930   -0.8960 c3        1 MOL      0.079273
     46 C16        -2.5750   -0.3140   -1.0600 c         1 MOL      0.446365
     47 O7         -1.9110    0.5020   -1.7980 o         1 MOL     -0.727471
     48 O8         -1.9610   -1.2470   -0.5270 o         1 MOL     -0.727471
     49 H21        -6.4910   -0.2490   -1.2560 hn        1 MOL      0.219731
     50 H22        -4.5120   -1.7780   -2.1590 h1        1 MOL      0.042167
     51 H23        -4.3900    0.0730    0.1380 hc        1 MOL      0.055953
     52 H24        -4.4200    0.6600   -1.6150 hc        1 MOL      0.055953
     53 N5         -3.7380   -3.5420   -0.3820 n         1 MOL     -0.345440
     54 C17        -3.5260   -4.7440    0.4560 c3        1 MOL     -0.238161
     55 C18        -2.5260   -4.5610    1.6560 c         1 MOL      0.404309
     56 O9         -2.5520   -5.4000    2.6270 o         1 MOL     -0.542857
     57 H25        -3.3830   -3.6460   -1.3250 hn        1 MOL      0.231024
     58 H26        -3.1740   -5.5650   -0.1560 h1        1 MOL      0.153103
     59 H27        -4.4910   -4.9950    0.8920 h1        1 MOL      0.153103
     60 N6         -1.7390   -3.5180    1.6710 n         1 MOL     -0.161261
     61 C19        -0.8650   -3.0970    2.7970 c3        1 MOL     -0.058115
     62 C20        -1.1330   -1.6900    3.2970 c         1 MOL      0.322657
     63 O10        -0.2800   -1.0700    3.9570 o         1 MOL     -0.441763
     64 C21         0.5800   -3.4850    2.5070 c3        1 MOL     -0.143367
     65 C22         1.3350   -2.7800    1.4460 c         1 MOL      0.730652
     66 N7          2.6190   -3.0020    1.3660 n         1 MOL     -0.759503
     67 O11         0.7730   -2.0570    0.6750 o         1 MOL     -0.689506
     68 H28        -1.6250   -2.9740    0.8300 hn        1 MOL      0.230051
     69 H29        -1.1290   -3.7040    3.6520 h1        1 MOL      0.138954
     70 H30         0.6580   -4.5510    2.3020 hc        1 MOL      0.068095
     71 H31         1.1110   -3.3300    3.4460 hc        1 MOL      0.068095
     72 H32         3.0230   -3.7050    1.9630 hn        1 MOL      0.345886
     73 H33         3.0900   -2.5740    0.5780 hn        1 MOL      0.345886
     74 N8         -2.3130   -1.1420    2.9680 n         1 MOL     -0.019865
     75 C23        -2.7820    0.1420    3.5650 c3        1 MOL     -0.430494
     76 C24        -2.3180    1.4340    2.9670 c         1 MOL      0.686678
     77 O12        -2.5490    2.4800    3.5550 o         1 MOL     -0.553349
     78 H34        -2.9950   -1.7930    2.6140 hn        1 MOL      0.168143
     79 H35        -2.3890    0.1800    4.5830 h1        1 MOL      0.171315
     80 H36        -3.8690    0.1160    3.5310 h1        1 MOL      0.171315
     81 N9         -1.6530    1.3810    1.7900 n         1 MOL     -0.416187
     82 C25        -0.7280    2.4410    1.2910 c3        1 MOL      0.094419
     83 C26         0.6700    2.0300    0.7210 c         1 MOL      0.206343
     84 O13         0.7420    0.9900    0.0210 o         1 MOL     -0.249623
     85 C27        -1.4880    3.2980    0.2610 c3        1 MOL     -0.254108
     86 C28        -0.6200    4.3160   -0.4530 ca        1 MOL      0.064017
     87 C29        -0.2570    5.5190    0.1320 ca        1 MOL     -0.070757
     88 C30        -0.2090    4.0670   -1.8070 ca        1 MOL     -0.070757
     89 C31         0.4040    6.5100   -0.5610 ca        1 MOL     -0.379702
     90 C32         0.4890    5.1080   -2.5260 ca        1 MOL     -0.379702
     91 C33         0.7050    6.3940   -1.9470 ca        1 MOL      0.429079
     92 O14         1.3460    7.3610   -2.6360 oh        1 MOL     -0.485895
     93 H37        -1.6100    0.4800    1.3370 hn        1 MOL      0.231644
     94 H38        -0.4940    3.1360    2.1010 h1        1 MOL      0.053265
     95 H39        -2.2830    3.8130    0.8240 hc        1 MOL      0.123283
     96 H40        -1.9860    2.6140   -0.4250 hc        1 MOL      0.123283
     97 H41        -0.6510    5.6100    1.1370 ha        1 MOL      0.126317
     98 H42        -0.5190    3.2090   -2.3910 ha        1 MOL      0.126317
     99 H43         0.5740    7.4280   -0.0180 ha        1 MOL      0.169850
    100 H44         1.0330    4.9540   -3.4510 ha        1 MOL      0.169850
    101 H45         1.5220    7.1140   -3.5430 ho        1 MOL      0.368070
    102 N10         1.6930    2.7960    1.0970 n         1 MOL     -0.286463
    103 C34         3.0810    2.3430    0.7450 c3        1 MOL     -0.172799
    104 C35         3.5380    1.1490    1.5810 c         1 MOL      0.290698
    105 O15         4.1560    0.1990    1.0630 o         1 MOL     -0.410456
    106 C36         4.1720    3.5170    0.6670 c3        1 MOL      0.057117
    107 C37         3.7140    4.4780   -0.4360 c3        1 MOL      0.185971
    108 C38         5.5840    2.9840    0.3120 c3        1 MOL     -0.366617
    109 C39         4.2710    5.9540   -0.3270 c3        1 MOL     -0.284612
    110 H46         1.6250    3.7410    1.4470 hn        1 MOL      0.291410
    111 H47         3.0320    1.9360   -0.2690 h1        1 MOL      0.109677
    112 H48         4.1360    4.0410    1.6190 hc        1 MOL      0.013515
    113 H49         2.6330    4.5590   -0.4730 hc        1 MOL     -0.008978
    114 H50         3.9140    4.0640   -1.4230 hc        1 MOL     -0.008978
    115 H51         6.1960    3.8690    0.1220 hc        1 MOL      0.112353
    116 H52         6.0260    2.4680    1.1620 hc        1 MOL      0.112353
    117 H53         5.6000    2.3120   -0.5520 hc        1 MOL      0.112353
    118 H54         4.1620    6.4700   -1.2860 hc        1 MOL      0.070284
    119 H55         3.7370    6.5230    0.4400 hc        1 MOL      0.070284
    120 H56         5.3450    5.9320   -0.1590 hc        1 MOL      0.070284
    121 N11         3.2820    1.1160    2.8610 n         1 MOL     -0.015845
    122 C40         3.5780   -0.0350    3.7320 c3        1 MOL     -0.093546
    123 C41         5.0830   -0.3820    3.7710 c         1 MOL      0.372258
    124 O16         5.4340   -1.5370    3.9640 o         1 MOL     -0.495831
    125 C42         3.0030    0.2200    5.0670 c3        1 MOL      0.141893
    126 O17         1.6750    0.7990    4.9050 oh        1 MOL     -0.570138
    127 H57         2.6600    1.8120    3.2560 hn        1 MOL      0.171367
    128 H58         3.0610   -0.8540    3.2370 h1        1 MOL      0.098641
    129 H59         3.6210    0.9460    5.6010 h1        1 MOL      0.060007
    130 H60         2.9350   -0.6860    5.6600 h1        1 MOL      0.060007
    131 H61         1.0770    0.1330    4.5680 ho        1 MOL      0.345588
    132 N12         5.8960    0.6390    3.7350 n         1 MOL     -0.286370
    133 C43         7.4070    0.5540    3.6580 c3        1 MOL      0.253640
    134 C44         7.9910   -0.4290    2.6290 c         1 MOL      0.330621
    135 O18         9.1810   -0.7300    2.7140 o         1 MOL     -0.499638
    136 C45         7.9350    0.4140    5.1250 c3        1 MOL     -0.308007
    137 H62         5.4130    1.5270    3.7760 hn        1 MOL      0.192492
    138 H63         7.6780    1.5520    3.3180 h1        1 MOL      0.042662
    139 H64         7.3960   -0.3600    5.6770 hc        1 MOL      0.088574
    140 H65         9.0230    0.3890    5.1340 hc        1 MOL      0.088574
    141 H66         7.6510    1.3130    5.6640 hc        1 MOL      0.088574
    142 N13         7.2010   -0.9320    1.6600 n         1 MOL     -0.103790
    143 C46         7.5050   -1.8700    0.5630 c3        1 MOL      0.265191
    144 C47         7.9520   -1.2000   -0.6880 c         1 MOL      0.511930
    145 O19         7.4010   -0.1740   -1.0140 o         1 MOL     -0.531156
    146 C48         6.3530   -2.7560    0.2950 c3        1 MOL     -0.365195
    147 H67         6.2930   -0.5160    1.4980 hn        1 MOL     -0.024239
    148 H68         8.3890   -2.4280    0.8770 h1        1 MOL     -0.007422
    149 H69         5.4430   -2.1640    0.2300 hc        1 MOL      0.106451
    150 H70         6.4020   -3.1440   -0.7120 hc        1 MOL      0.106451
    151 H71         6.3650   -3.4800    1.1090 hc        1 MOL      0.106451
    152 N14         8.9860   -1.7260   -1.3360 n         1 MOL     -0.536742
    153 C49         9.5600   -1.1260   -2.5850 c3        1 MOL      0.116481
    154 C50        10.0300    0.2710   -2.4390 c         1 MOL      0.414278
    155 O20        10.0590    1.0290   -3.4060 o         1 MOL     -0.518517
    156 C51         8.6440   -1.3010   -3.8180 c3        1 MOL     -0.002418
    157 C52         9.4520   -2.1240   -4.9050 c3        1 MOL     -0.434003
    158 C53         9.8560   -3.5350   -4.4760 c         1 MOL      0.755430
    159 O21         8.9820   -4.4310   -4.3210 o         1 MOL     -0.669381
    160 O22        11.0540   -3.8460   -4.2170 o         1 MOL     -0.669381
    161 H72         9.4470   -2.5520   -0.9820 hn        1 MOL      0.335285
    162 H73        10.4540   -1.6680   -2.8860 h1        1 MOL      0.063296
    163 H74         8.2070   -0.3640   -4.1910 hc        1 MOL      0.042629
    164 H75         7.8350   -1.9370   -3.4630 hc        1 MOL      0.042629
    165 H76        10.3520   -1.5630   -5.1650 hc        1 MOL      0.099231
    166 H77         8.9670   -2.0930   -5.8830 hc        1 MOL      0.099231
    167 N15        10.3780    0.6700   -1.2770 n         1 MOL     -0.234626
    168 C54        10.4700    2.0920   -0.7790 c3        1 MOL     -0.160808
    169 H78        11.2020    2.6380   -1.3740 h1        1 MOL      0.090228
    170 H79         9.4960    2.5730   -0.8700 h1        1 MOL      0.090228
    171 H80        10.7790    2.0920    0.2660 h1        1 MOL      0.090228
    172 H81        10.3690   -0.0620   -0.5830 hn        1 MOL      0.189089
    173 Ca1         0.3540   -1.1110   -1.7980 Ca        1 MOL      1.716771
    174 O23         0.3330   -3.7960   -1.8920 oh        1 MOL     -0.796579
    175 H82         0.0320   -4.3780   -1.1920 ho        1 MOL      0.384114
    176 H83         0.3380   -4.3420   -2.6720 ho        1 MOL      0.384114
    177 O24         1.9340   -1.6340   -4.1170 oh        1 MOL     -0.796579
    178 H84         1.3740   -1.3000   -4.8140 ho        1 MOL      0.384114
    179 H85         2.4720   -2.3010   -4.5400 ho        1 MOL      0.384114
    180 O25        -1.4070   -2.0250   -3.6080 oh        1 MOL     -0.796579
    181 H86        -1.3270   -1.9540   -4.5580 ho        1 MOL      0.384114
    182 H87        -2.1600   -2.6020   -3.4820 ho        1 MOL      0.384114
    183 O26         2.9940   -0.8030   -1.1310 oh        1 MOL     -0.796579
    184 H88         3.6640   -0.6190   -1.7940 ho        1 MOL      0.384114
    185 H89         3.2870   -0.3360   -0.3540 ho        1 MOL      0.384114
    186 O27         1.3480    1.2370   -3.0800 oh        1 MOL     -0.796579
    187 H90         2.1610    1.0610   -3.5490 ho        1 MOL      0.384114
    188 H91         0.8150    1.7320   -3.6990 ho        1 MOL      0.384114
@<TRIPOS>BOND
     1    1    2 1   
     2    1    4 1   
     3    1    5 1   
     4    1    6 1   
     5    2    3 2   
     6    2    7 1   
     7    7    8 1   
     8    7   15 1   
     9    8    9 1   
    10    8   11 1   
    11    8   16 1   
    12    9   10 2   
    13    9   19 1   
    14   11   12 1   
    15   11   17 1   
    16   11   18 1   
    17   12   13 1   
    18   12   14 1   
    19   19   20 1   
    20   19   28 1   
    21   20   21 1   
    22   20   23 1   
    23   20   29 1   
    24   21   22 2   
    25   21   41 1   
    26   23   24 1   
    27   23   30 1   
    28   23   31 1   
    29   24   25 1   
    30   24   32 1   
    31   24   33 1   
    32   25   26 1   
    33   25   34 1   
    34   25   35 1   
    35   26   27 1   
    36   26   36 1   
    37   26   37 1   
    38   27   38 1   
    39   27   39 1   
    40   27   40 1   
    41   41   42 1   
    42   41   49 1   
    43   42   43 1   
    44   42   45 1   
    45   42   50 1   
    46   43   44 2   
    47   43   53 1   
    48   45   46 1   
    49   45   51 1   
    50   45   52 1   
    51   46   47 1   
    52   46   48 1   
    53   53   54 1   
    54   53   57 1   
    55   54   55 1   
    56   54   58 1   
    57   54   59 1   
    58   55   56 2   
    59   55   60 1   
    60   60   61 1   
    61   60   68 1   
    62   61   62 1   
    63   61   64 1   
    64   61   69 1   
    65   62   63 2   
    66   62   74 1   
    67   64   65 1   
    68   64   70 1   
    69   64   71 1   
    70   65   66 1   
    71   65   67 2   
    72   66   72 1   
    73   66   73 1   
    74   74   75 1   
    75   74   78 1   
    76   75   76 1   
    77   75   79 1   
    78   75   80 1   
    79   76   77 2   
    80   76   81 1   
    81   81   82 1   
    82   81   93 1   
    83   82   83 1   
    84   82   85 1   
    85   82   94 1   
    86   83   84 2   
    87   83  102 1   
    88   85   86 1   
    89   85   95 1   
    90   85   96 1   
    91   86   87 ar  
    92   86   88 ar  
    93   87   89 ar  
    94   87   97 1   
    95   88   90 ar  
    96   88   98 1   
    97   89   91 ar  
    98   89   99 1   
    99   90   91 ar  
   100   90  100 1   
   101   91   92 1   
   102   92  101 1   
   103  102  103 1   
   104  102  110 1   
   105  103  104 1   
   106  103  106 1   
   107  103  111 1   
   108  104  105 2   
   109  104  121 1   
   110  106  107 1   
   111  106  108 1   
   112  106  112 1   
   113  107  109 1   
   114  107  113 1   
   115  107  114 1   
   116  108  115 1   
   117  108  116 1   
   118  108  117 1   
   119  109  118 1   
   120  109  119 1   
   121  109  120 1   
   122  121  122 1   
   123  121  127 1   
   124  122  123 1   
   125  122  125 1   
   126  122  128 1   
   127  123  124 2   
   128  123  132 1   
   129  125  126 1   
   130  125  129 1   
   131  125  130 1   
   132  126  131 1   
   133  132  133 1   
   134  132  137 1   
   135  133  134 1   
   136  133  136 1   
   137  133  138 1   
   138  134  135 2   
   139  134  142 1   
   140  136  139 1   
   141  136  140 1   
   142  136  141 1   
   143  142  143 1   
   144  142  147 1   
   145  143  144 1   
   146  143  146 1   
   147  143  148 1   
   148  144  145 2   
   149  144  152 1   
   150  146  149 1   
   151  146  150 1   
   152  146  151 1   
   153  152  153 1   
   154  152  161 1   
   155  153  154 1   
   156  153  156 1   
   157  153  162 1   
   158  154  155 2   
   159  154  167 1   
   160  156  157 1   
   161  156  163 1   
   162  156  164 1   
   163  157  158 1   
   164  157  165 1   
   165  157  166 1   
   166  158  159 1   
   167  158  160 1   
   168  167  168 1   
   169  167  172 1   
   170  168  169 1   
   171  168  170 1   
   172  168  171 1   
   173  174  175 1   
   174  174  176 1   
   175  177  178 1   
   176  177  179 1   
   177  180  181 1   
   178  180  182 1   
   179  183  184 1   
   180  183  185 1   
   181  186  187 1   
   182  186  188 1   
@<TRIPOS>SUBSTRUCTURE
     1 MOL         1 TEMP              0 ****  ****    0 ROOT
