@<TRIPOS>MOLECULE
MOL
  182   178     1     0     0
SMALL
resp


@<TRIPOS>ATOM
      1 C1          2.0260   -5.9620    5.2600 c3        1 MOL     -0.410214
      2 C2          1.8000   -5.2550    3.8960 c         1 MOL      0.757375
      3 O1          0.9750   -5.6030    3.0620 o         1 MOL     -0.593636
      4 H1          1.0620   -6.1750    5.7220 hc        1 MOL      0.112505
      5 H2          2.5660   -6.8950    5.1010 hc        1 MOL      0.112505
      6 H3          2.6060   -5.3110    5.9140 hc        1 MOL      0.112505
      7 N1          2.5980   -4.1690    3.7040 n         1 MOL     -0.613046
      8 C3          2.6420   -3.4280    2.4660 c3        1 MOL     -0.083879
      9 C4          3.1820   -4.3990    1.3610 c         1 MOL      0.616956
     10 O2          4.2860   -5.0100    1.4130 o         1 MOL     -0.553780
     11 C5          3.5970   -2.2550    2.6780 c3        1 MOL      0.325007
     12 C6          3.5480   -1.2640    1.5740 c         1 MOL      0.157944
     13 O3          3.8110   -0.1110    1.8000 o         1 MOL     -0.591140
     14 O4          3.2440   -1.6330    0.4200 o         1 MOL     -0.591140
     15 H4          3.1340   -3.7710    4.4620 hn        1 MOL      0.309207
     16 H5          1.6660   -3.0290    2.1570 h1        1 MOL      0.096912
     17 H6          4.6420   -2.5420    2.8040 hc        1 MOL     -0.003212
     18 H7          3.4200   -1.7680    3.6340 hc        1 MOL     -0.003212
     19 N2          2.4620   -4.6570    0.2730 n         1 MOL     -0.262599
     20 C7          2.9490   -5.4650   -0.8380 c3        1 MOL     -0.150422
     21 C8          4.0780   -4.7540   -1.6650 c         1 MOL      0.590641
     22 O5          4.5080   -5.3950   -2.6440 o         1 MOL     -0.625846
     23 C9          1.8090   -5.6570   -1.8030 c3        1 MOL     -0.051851
     24 C10         1.3130   -4.4180   -2.5010 c3        1 MOL      0.058310
     25 C11         0.9900   -4.5550   -4.0290 c3        1 MOL     -0.123026
     26 C12         2.1620   -4.6070   -5.0620 c3        1 MOL      0.159681
     27 N3          1.6110   -4.2210   -6.3670 n4        1 MOL     -0.403599
     28 H8          1.6150   -4.1070    0.2230 hn        1 MOL      0.190252
     29 H9          3.2980   -6.4290   -0.4490 h1        1 MOL      0.168861
     30 H10         0.9260   -6.1450   -1.4000 hc        1 MOL      0.053583
     31 H11         2.0650   -6.4350   -2.5240 hc        1 MOL      0.053583
     32 H12         1.9350   -3.5370   -2.3420 hc        1 MOL      0.020689
     33 H13         0.4080   -4.1380   -1.9590 hc        1 MOL      0.020689
     34 H14         0.3930   -3.6580   -4.2400 hc        1 MOL      0.033979
     35 H15         0.3130   -5.3910   -4.2000 hc        1 MOL      0.033979
     36 H16         2.6620   -5.5740   -5.1770 hx        1 MOL      0.072693
     37 H17         2.8740   -3.8470   -4.7300 hx        1 MOL      0.072693
     38 H18         1.1290   -5.0090   -6.7820 hn        1 MOL      0.327071
     39 H19         0.9110   -3.4970   -6.2820 hn        1 MOL      0.327071
     40 H20         2.3390   -3.8220   -6.9410 hn        1 MOL      0.327071
     41 N4          4.5880   -3.5560   -1.3980 n         1 MOL     -0.010264
     42 C13         5.6920   -2.8640   -2.0940 c3        1 MOL     -0.114237
     43 C14         6.6130   -2.1390   -1.0620 c         1 MOL      0.487458
     44 O6          7.7630   -1.8720   -1.4100 o         1 MOL     -0.535031
     45 C15         5.1660   -1.7540   -3.0750 c3        1 MOL     -0.133496
     46 C16         4.2030   -0.7720   -2.4920 c         1 MOL      0.645354
     47 O7          4.6630    0.0740   -1.7080 o         1 MOL     -0.694358
     48 O8          2.9930   -0.9000   -2.6510 o         1 MOL     -0.694358
     49 H21         4.0070   -3.0280   -0.7580 hn        1 MOL     -0.311070
     50 H22         6.2860   -3.5690   -2.6690 h1        1 MOL      0.147042
     51 H23         4.6710   -2.2030   -3.9440 hc        1 MOL      0.044476
     52 H24         6.0140   -1.1630   -3.4010 hc        1 MOL      0.044476
     53 N5          6.1780   -1.9040    0.1650 n         1 MOL     -0.113720
     54 C17         6.9910   -1.3200    1.2830 c3        1 MOL     -0.258910
     55 C18         7.3020    0.1930    1.1730 c         1 MOL      0.602121
     56 O9          8.2230    0.5790    1.8030 o         1 MOL     -0.549416
     57 H25         5.2880   -2.2040    0.5510 hn        1 MOL      0.203912
     58 H26         7.9670   -1.8090    1.2380 h1        1 MOL      0.125033
     59 H27         6.6420   -1.5870    2.2760 h1        1 MOL      0.125033
     60 N6          6.5450    0.9800    0.3960 n         1 MOL     -0.301862
     61 C19         6.7760    2.3980    0.1060 c3        1 MOL      0.053977
     62 C20         5.4220    3.2320   -0.0160 c         1 MOL      0.372016
     63 O10         4.3790    2.6670   -0.2540 o         1 MOL     -0.445419
     64 C21         7.6660    2.4650   -1.1290 c3        1 MOL     -0.305684
     65 C22         7.0860    3.1870   -2.3320 c         1 MOL      0.610875
     66 N7          6.1960    2.4750   -2.9820 n         1 MOL     -0.688250
     67 O11         7.4570    4.2970   -2.7910 o         1 MOL     -0.586578
     68 H28         5.9380    0.5260   -0.2720 hn        1 MOL      0.257449
     69 H29         7.3530    2.7660    0.9510 h1        1 MOL      0.076757
     70 H30         7.9010    1.4580   -1.4630 hc        1 MOL      0.115582
     71 H31         8.5570    2.9960   -0.7870 hc        1 MOL      0.115582
     72 H32         5.9960    1.5680   -2.5900 hn        1 MOL      0.337132
     73 H33         5.5940    2.9770   -3.6190 hn        1 MOL      0.337132
     74 N8          5.5520    4.5760    0.0720 n         1 MOL     -0.267767
     75 C23         4.3860    5.4590   -0.0740 c3        1 MOL     -0.258345
     76 C24         3.3340    5.2090    1.0020 c         1 MOL      0.561346
     77 O12         3.6150    4.6010    2.0820 o         1 MOL     -0.482990
     78 H34         6.4720    4.9100    0.3300 hn        1 MOL      0.289552
     79 H35         3.9470    5.3140   -1.0520 h1        1 MOL      0.142932
     80 H36         4.7290    6.4710    0.1330 h1        1 MOL      0.142932
     81 N9          2.0540    5.4550    0.6670 n         1 MOL     -0.431399
     82 C25         0.9640    5.1300    1.4810 c3        1 MOL      0.065639
     83 C26         0.6820    3.6110    1.5430 c         1 MOL      0.563040
     84 O13         1.3700    2.7610    0.9740 o         1 MOL     -0.660122
     85 C27        -0.3000    5.9350    1.0330 c3        1 MOL     -0.213705
     86 C28        -0.8930    5.6200   -0.3250 ca        1 MOL      0.135448
     87 C29        -0.4850    6.1870   -1.5020 ca        1 MOL     -0.195636
     88 C30        -1.9550    4.6520   -0.2580 ca        1 MOL     -0.195636
     89 C31        -1.1770    5.9100   -2.7210 ca        1 MOL     -0.257823
     90 C32        -2.5240    4.2380   -1.4860 ca        1 MOL     -0.257823
     91 C33        -2.2060    4.9410   -2.6790 ca        1 MOL      0.360815
     92 O14        -2.8280    4.5830   -3.8370 oh        1 MOL     -0.522125
     93 H37         1.9130    5.9560   -0.1990 hn        1 MOL      0.252125
     94 H38         1.2070    5.4270    2.5000 h1        1 MOL      0.081151
     95 H39        -0.0420    6.9910    1.1300 hc        1 MOL      0.078000
     96 H40        -1.0700    5.8800    1.8060 hc        1 MOL      0.078000
     97 H41         0.3260    6.8970   -1.5760 ha        1 MOL      0.141701
     98 H42        -2.2050    4.3630    0.7520 ha        1 MOL      0.141701
     99 H43        -0.8000    6.3290   -3.6510 ha        1 MOL      0.176433
    100 H44        -3.2780    3.4630   -1.5090 ha        1 MOL      0.176433
    101 H45        -3.4160    3.8490   -3.6710 ho        1 MOL      0.410889
    102 N10        -0.1500    3.2290    2.4650 n         1 MOL     -0.432042
    103 C34        -0.0990    1.9230    3.0970 c3        1 MOL      0.048728
    104 C35        -0.2750    0.7260    2.1890 c         1 MOL      0.114771
    105 O15         0.6730    0.2070    1.5880 o         1 MOL     -0.302137
    106 C36         1.1220    1.8040    4.0830 c3        1 MOL      0.431269
    107 C37         0.7890    0.7210    5.0750 c3        1 MOL      0.054744
    108 C38         1.5990    3.1000    4.7250 c3        1 MOL     -0.210135
    109 C39         1.8660    0.2170    6.0310 c3        1 MOL     -0.251286
    110 H46        -0.7300    3.9340    2.9190 hn        1 MOL      0.285269
    111 H47        -0.9680    1.9090    3.7590 h1        1 MOL      0.012100
    112 H48         1.9960    1.3910    3.5720 hc        1 MOL      0.003051
    113 H49         0.3760   -0.1330    4.5240 hc        1 MOL     -0.034012
    114 H50        -0.0140    1.0790    5.7170 hc        1 MOL     -0.034012
    115 H51         2.3220    2.7950    5.4810 hc        1 MOL      0.025988
    116 H52         2.0020    3.8200    4.0070 hc        1 MOL      0.025988
    117 H53         0.7260    3.4670    5.2590 hc        1 MOL      0.025988
    118 H54         1.4280   -0.6610    6.5120 hc        1 MOL      0.069334
    119 H55         2.8000   -0.0370    5.5510 hc        1 MOL      0.069334
    120 H56         2.0710    1.0540    6.7030 hc        1 MOL      0.069334
    121 N11        -1.6130    0.3700    2.0380 n         1 MOL     -0.255718
    122 C40        -2.0750   -0.9070    1.3510 c3        1 MOL     -0.337353
    123 C41        -3.4760   -0.8880    0.7210 c         1 MOL      0.675250
    124 O16        -4.0970   -1.8800    0.3470 o         1 MOL     -0.517439
    125 C42        -2.0980   -2.0310    2.4110 c3        1 MOL      0.009022
    126 O17        -3.0740   -1.7310    3.3800 oh        1 MOL     -0.491637
    127 H57        -2.3040    0.8530    2.5890 hn        1 MOL      0.292107
    128 H58        -1.3690   -1.2240    0.5810 h1        1 MOL      0.177656
    129 H59        -1.1080   -2.0560    2.8800 h1        1 MOL      0.121686
    130 H60        -2.4150   -2.9840    1.9920 h1        1 MOL      0.121686
    131 H61        -2.6520   -1.4340    4.1940 ho        1 MOL      0.353005
    132 N12        -4.1400    0.3210    0.5560 n         1 MOL     -0.387597
    133 C43        -5.4190    0.4680   -0.1290 c3        1 MOL     -0.113618
    134 C44        -5.2440    0.3530   -1.5790 c         1 MOL      0.715192
    135 O18        -4.2580    0.8910   -2.1390 o         1 MOL     -0.620447
    136 C45        -5.9640    1.8730    0.2610 c3        1 MOL     -0.334542
    137 H62        -3.7020    1.1590    0.9300 hn        1 MOL      0.222327
    138 H63        -6.0300   -0.3130    0.3130 h1        1 MOL      0.149552
    139 H64        -5.2950    2.6150   -0.1620 hc        1 MOL      0.112814
    140 H65        -6.9420    2.1210   -0.1480 hc        1 MOL      0.112814
    141 H66        -6.1090    2.0230    1.3320 hc        1 MOL      0.112814
    142 N13        -6.1360   -0.3530   -2.3400 n         1 MOL     -0.770474
    143 C46        -7.3180   -1.0440   -1.8450 c3        1 MOL      0.227520
    144 C47        -8.3250   -0.0210   -1.4660 c         1 MOL      1.058140
    145 O19        -8.4850    0.9780   -2.1000 o         1 MOL     -0.654413
    146 C48        -7.6620   -1.9720   -2.9300 c3        1 MOL     -0.195189
    147 H67        -5.8190   -0.6250   -3.2560 hn        1 MOL      0.375743
    148 H68        -6.9970   -1.6410   -0.9930 h1        1 MOL      0.054824
    149 H69        -6.7270   -2.4160   -3.2770 hc        1 MOL      0.050506
    150 H70        -8.2380   -2.7930   -2.5130 hc        1 MOL      0.050506
    151 H71        -8.1780   -1.5110   -3.7710 hc        1 MOL      0.050506
    152 N14        -9.1610   -0.2040   -0.4970 n         1 MOL     -0.901746
    153 C49        -9.5840   -1.4660    0.0890 c3        1 MOL     -0.008321
    154 C50        -9.7730   -1.4080    1.5840 c         1 MOL      0.432467
    155 O20        -9.4340   -2.3170    2.3680 o         1 MOL     -0.553927
    156 C51       -10.8640   -1.9230   -0.5800 c3        1 MOL      0.319140
    157 C52       -12.2400   -1.1880   -0.4430 c3        1 MOL     -0.159727
    158 C53       -12.2350    0.1870   -1.1960 c         1 MOL      0.597005
    159 O21       -11.5520    1.0330   -0.5590 o         1 MOL     -0.628737
    160 O22       -12.5390    0.2990   -2.4130 o         1 MOL     -0.628737
    161 H72        -9.8600    0.5150   -0.4710 hn        1 MOL      0.357673
    162 H73        -8.8700   -2.2910    0.0340 h1        1 MOL      0.031415
    163 H74       -10.9640   -2.9730   -0.2970 hc        1 MOL     -0.064833
    164 H75       -10.6590   -2.0170   -1.6540 hc        1 MOL     -0.064833
    165 H76       -12.3650   -1.0670    0.6350 hc        1 MOL     -0.008131
    166 H77       -13.0180   -1.8240   -0.8470 hc        1 MOL     -0.008131
    167 N15       -10.2540   -0.2600    2.0220 n         1 MOL     -0.140681
    168 C54       -10.6550   -0.0990    3.4270 c3        1 MOL     -0.147829
    169 H78       -11.7230   -0.2940    3.5240 h1        1 MOL      0.073313
    170 H79       -10.1000   -0.8040    4.0470 h1        1 MOL      0.073313
    171 H80       -10.4400    0.9190    3.7530 h1        1 MOL      0.073313
    172 H81       -10.4980    0.4060    1.3130 hn        1 MOL      0.183253
    173 Ca1         2.3750    0.7310   -0.5570 Ca        1 MOL      1.821865
    174 O23        -0.0590    1.1880   -1.2820 oh        1 MOL     -0.831820
    175 H82        -0.5560    0.8210   -2.0070 ho        1 MOL      0.407690
    176 H83        -0.6730    1.7620   -0.8270 ho        1 MOL      0.407690
    177 O24         0.4830   -1.4630   -1.4370 oh        1 MOL     -0.831820
    178 H84        -0.3690   -1.8840   -1.4890 ho        1 MOL      0.407690
    179 H85         1.1170   -2.1820   -1.5350 ho        1 MOL      0.407690
    180 O25         2.2830    2.2240   -2.9150 oh        1 MOL     -0.831820
    181 H86         1.5190    1.9870   -3.4450 ho        1 MOL      0.407690
    182 H87         2.9190    2.5780   -3.5470 ho        1 MOL      0.407690
@<TRIPOS>BOND
     1    1    2 1   
     2    1    4 1   
     3    1    5 1   
     4    1    6 1   
     5    2    3 2   
     6    2    7 1   
     7    7    8 1   
     8    7   15 1   
     9    8    9 1   
    10    8   11 1   
    11    8   16 1   
    12    9   10 2   
    13    9   19 1   
    14   11   12 1   
    15   11   17 1   
    16   11   18 1   
    17   12   13 1   
    18   12   14 1   
    19   19   20 1   
    20   19   28 1   
    21   20   21 1   
    22   20   23 1   
    23   20   29 1   
    24   21   22 2   
    25   21   41 1   
    26   23   24 1   
    27   23   30 1   
    28   23   31 1   
    29   24   25 1   
    30   24   32 1   
    31   24   33 1   
    32   25   26 1   
    33   25   34 1   
    34   25   35 1   
    35   26   27 1   
    36   26   36 1   
    37   26   37 1   
    38   27   38 1   
    39   27   39 1   
    40   27   40 1   
    41   41   42 1   
    42   41   49 1   
    43   42   43 1   
    44   42   45 1   
    45   42   50 1   
    46   43   44 2   
    47   43   53 1   
    48   45   46 1   
    49   45   51 1   
    50   45   52 1   
    51   46   47 1   
    52   46   48 1   
    53   53   54 1   
    54   53   57 1   
    55   54   55 1   
    56   54   58 1   
    57   54   59 1   
    58   55   56 2   
    59   55   60 1   
    60   60   61 1   
    61   60   68 1   
    62   61   62 1   
    63   61   64 1   
    64   61   69 1   
    65   62   63 2   
    66   62   74 1   
    67   64   65 1   
    68   64   70 1   
    69   64   71 1   
    70   65   66 1   
    71   65   67 2   
    72   66   72 1   
    73   66   73 1   
    74   74   75 1   
    75   74   78 1   
    76   75   76 1   
    77   75   79 1   
    78   75   80 1   
    79   76   77 2   
    80   76   81 1   
    81   81   82 1   
    82   81   93 1   
    83   82   83 1   
    84   82   85 1   
    85   82   94 1   
    86   83   84 2   
    87   83  102 1   
    88   85   86 1   
    89   85   95 1   
    90   85   96 1   
    91   86   87 ar  
    92   86   88 ar  
    93   87   89 ar  
    94   87   97 1   
    95   88   90 ar  
    96   88   98 1   
    97   89   91 ar  
    98   89   99 1   
    99   90   91 ar  
   100   90  100 1   
   101   91   92 1   
   102   92  101 1   
   103  102  103 1   
   104  102  110 1   
   105  103  104 1   
   106  103  106 1   
   107  103  111 1   
   108  104  105 2   
   109  104  121 1   
   110  106  107 1   
   111  106  108 1   
   112  106  112 1   
   113  107  109 1   
   114  107  113 1   
   115  107  114 1   
   116  108  115 1   
   117  108  116 1   
   118  108  117 1   
   119  109  118 1   
   120  109  119 1   
   121  109  120 1   
   122  121  122 1   
   123  121  127 1   
   124  122  123 1   
   125  122  125 1   
   126  122  128 1   
   127  123  124 2   
   128  123  132 1   
   129  125  126 1   
   130  125  129 1   
   131  125  130 1   
   132  126  131 1   
   133  132  133 1   
   134  132  137 1   
   135  133  134 1   
   136  133  136 1   
   137  133  138 1   
   138  134  135 2   
   139  134  142 1   
   140  136  139 1   
   141  136  140 1   
   142  136  141 1   
   143  142  143 1   
   144  142  147 1   
   145  143  144 1   
   146  143  146 1   
   147  143  148 1   
   148  144  145 2   
   149  144  152 1   
   150  146  149 1   
   151  146  150 1   
   152  146  151 1   
   153  152  153 1   
   154  152  161 1   
   155  153  154 1   
   156  153  156 1   
   157  153  162 1   
   158  154  155 2   
   159  154  167 1   
   160  156  157 1   
   161  156  163 1   
   162  156  164 1   
   163  157  158 1   
   164  157  165 1   
   165  157  166 1   
   166  158  159 1   
   167  158  160 1   
   168  167  168 1   
   169  167  172 1   
   170  168  169 1   
   171  168  170 1   
   172  168  171 1   
   173  174  175 1   
   174  174  176 1   
   175  177  178 1   
   176  177  179 1   
   177  180  181 1   
   178  180  182 1   
@<TRIPOS>SUBSTRUCTURE
     1 MOL         1 TEMP              0 ****  ****    0 ROOT
