@<TRIPOS>MOLECULE
MOL
  182   178     1     0     0
SMALL
resp


@<TRIPOS>ATOM
      1 C1          0.1930   -3.7300    6.4860 c3        1 MOL     -0.323205
      2 C2          0.4210   -3.5880    4.9600 c         1 MOL      0.743839
      3 O1         -0.5650   -3.7130    4.1650 o         1 MOL     -0.625018
      4 H1          0.8170   -3.0080    7.0150 hc        1 MOL      0.091004
      5 H2         -0.8550   -3.5410    6.7170 hc        1 MOL      0.091004
      6 H3          0.4590   -4.7390    6.8020 hc        1 MOL      0.091004
      7 N1          1.6090   -3.4160    4.4580 n         1 MOL     -0.570771
      8 C3          2.0080   -3.2020    3.0020 c3        1 MOL      0.021824
      9 C4          1.9760   -4.5640    2.2140 c         1 MOL      0.626744
     10 O2          2.1240   -5.6260    2.8370 o         1 MOL     -0.533942
     11 C5          3.2780   -2.3400    2.9830 c3        1 MOL     -0.114383
     12 C6          3.3680   -1.5250    1.7570 c         1 MOL      0.822897
     13 O3          3.9120   -0.4150    1.7190 o         1 MOL     -0.759559
     14 O4          2.9040   -2.0160    0.7040 o         1 MOL     -0.759559
     15 H4          2.3040   -3.2350    5.1640 hn        1 MOL      0.302107
     16 H5          1.2390   -2.6390    2.4720 h1        1 MOL      0.018141
     17 H6          4.1650   -2.9570    3.1350 hc        1 MOL      0.042994
     18 H7          3.1390   -1.5520    3.7210 hc        1 MOL      0.042994
     19 N2          1.8090   -4.4980    0.8820 n         1 MOL     -0.505094
     20 C7          1.7700   -5.6200   -0.0970 c3        1 MOL      0.017508
     21 C8          2.9680   -5.5260   -1.1810 c         1 MOL      0.520334
     22 O5          3.2990   -6.5510   -1.7910 o         1 MOL     -0.527663
     23 C9          0.3790   -5.6080   -0.8080 c3        1 MOL     -0.059982
     24 C10         0.0670   -4.3130   -1.5530 c3        1 MOL      0.044915
     25 C11        -1.2140   -4.5170   -2.3660 c3        1 MOL     -0.060966
     26 C12        -1.4840   -3.2350   -3.0680 c3        1 MOL      0.042975
     27 N3         -2.8010   -3.4150   -3.7820 n4        1 MOL     -0.275695
     28 H8          1.7090   -3.5660    0.4950 hn        1 MOL      0.363106
     29 H9          1.8950   -6.5440    0.4590 h1        1 MOL      0.113008
     30 H10        -0.3800   -5.8100   -0.0490 hc        1 MOL      0.027071
     31 H11         0.3820   -6.4150   -1.5510 hc        1 MOL      0.027071
     32 H12         0.9560   -4.0560   -2.1330 hc        1 MOL      0.016458
     33 H13        -0.0720   -3.4980   -0.8460 hc        1 MOL      0.016458
     34 H14        -2.0830   -4.8790   -1.8100 hc        1 MOL      0.040570
     35 H15        -0.9900   -5.3110   -3.0680 hc        1 MOL      0.040570
     36 H16        -0.7400   -2.9580   -3.8240 hx        1 MOL      0.060805
     37 H17        -1.5860   -2.3770   -2.3980 hx        1 MOL      0.060805
     38 H18        -2.9880   -2.6260   -4.3880 hn        1 MOL      0.282577
     39 H19        -2.9650   -4.2850   -4.2610 hn        1 MOL      0.282577
     40 H20        -3.5150   -3.4110   -3.0620 hn        1 MOL      0.282577
     41 N4          3.6580   -4.3690   -1.1850 n         1 MOL     -0.460426
     42 C13         4.7860   -4.1270   -2.0830 c3        1 MOL      0.282798
     43 C14         6.1120   -3.6530   -1.3290 c         1 MOL      0.259728
     44 O6          7.2070   -3.8610   -1.8450 o         1 MOL     -0.499015
     45 C15         4.4270   -3.0180   -3.0630 c3        1 MOL     -0.338708
     46 C16         3.8690   -1.7650   -2.4010 c         1 MOL      0.865650
     47 O7          2.7050   -1.3530   -2.6250 o         1 MOL     -0.821969
     48 O8          4.5290   -1.1220   -1.5870 o         1 MOL     -0.821969
     49 H21         3.2550   -3.6140   -0.6630 hn        1 MOL      0.251998
     50 H22         4.9400   -5.0340   -2.6600 h1        1 MOL      0.073805
     51 H23         3.6690   -3.4590   -3.6970 hc        1 MOL      0.072932
     52 H24         5.3030   -2.7450   -3.6510 hc        1 MOL      0.072932
     53 N5          5.9950   -3.1780   -0.1280 n         1 MOL     -0.029582
     54 C17         7.0630   -2.6130    0.7240 c3        1 MOL     -0.362098
     55 C18         7.4400   -1.1200    0.5130 c         1 MOL      0.610380
     56 O9          8.2850   -0.6200    1.2430 o         1 MOL     -0.563954
     57 H25         5.0530   -2.9610    0.1770 hn        1 MOL      0.025996
     58 H26         7.9720   -3.1950    0.5160 h1        1 MOL      0.172131
     59 H27         6.8100   -2.7010    1.7770 h1        1 MOL      0.172131
     60 N6          6.8320   -0.4040   -0.4430 n         1 MOL     -0.457476
     61 C19         7.2120    0.9210   -0.9490 c3        1 MOL      0.259247
     62 C20         6.2470    2.0560   -0.5990 c         1 MOL      0.321232
     63 O10         5.0700    1.8210   -0.2200 o         1 MOL     -0.415417
     64 C21         7.2710    0.7960   -2.5350 c3        1 MOL     -0.347085
     65 C22         8.1870   -0.3000   -3.0700 c         1 MOL      0.629778
     66 N7          7.6070   -1.4410   -3.2790 n         1 MOL     -0.779849
     67 O11         9.3990   -0.0740   -3.2920 o         1 MOL     -0.542269
     68 H28         6.0940   -0.8450   -0.9680 hn        1 MOL      0.492614
     69 H29         8.1920    1.2420   -0.5790 h1        1 MOL      0.035959
     70 H30         7.5920    1.7700   -2.8990 hc        1 MOL      0.067643
     71 H31         6.2680    0.5150   -2.8700 hc        1 MOL      0.067643
     72 H32         6.6300   -1.5570   -3.0390 hn        1 MOL      0.380988
     73 H33         8.0440   -2.1530   -3.8580 hn        1 MOL      0.380988
     74 N8          6.6680    3.2770   -0.5430 n         1 MOL     -0.292864
     75 C23         5.7990    4.4320   -0.6070 c3        1 MOL     -0.104296
     76 C24         4.8060    4.5110    0.5110 c         1 MOL      0.671375
     77 O12         5.1940    4.5450    1.6800 o         1 MOL     -0.504973
     78 H34         7.6640    3.3570   -0.6850 hn        1 MOL      0.284379
     79 H35         5.2010    4.3570   -1.5240 h1        1 MOL      0.075573
     80 H36         6.3740    5.3490   -0.6810 h1        1 MOL      0.075573
     81 N9          3.5130    4.5220    0.0560 n         1 MOL     -0.784949
     82 C25         2.3560    4.6180    1.0210 c3        1 MOL      0.554158
     83 C26         1.9990    3.1680    1.5740 c         1 MOL      0.290791
     84 O13         2.6140    2.1450    1.2370 o         1 MOL     -0.422323
     85 C27         1.0780    5.2240    0.3810 c3        1 MOL     -0.169861
     86 C28         1.3360    6.6550   -0.1740 ca        1 MOL      0.266364
     87 C29         1.0300    6.9090   -1.5410 ca        1 MOL     -0.375465
     88 C30         1.8110    7.6320    0.6550 ca        1 MOL     -0.375465
     89 C31         1.0910    8.2280   -1.9890 ca        1 MOL     -0.085492
     90 C32         1.8450    8.9610    0.1710 ca        1 MOL     -0.085492
     91 C33         1.4900    9.2620   -1.1460 ca        1 MOL      0.194484
     92 O14         1.2860   10.5270   -1.5550 oh        1 MOL     -0.432713
     93 H37         3.2740    4.4690   -0.9160 hn        1 MOL      0.297054
     94 H38         2.5900    5.2300    1.8930 h1        1 MOL     -0.011262
     95 H39         0.2980    5.2760    1.1340 hc        1 MOL      0.018581
     96 H40         0.6730    4.5940   -0.4090 hc        1 MOL      0.018581
     97 H41         0.4820    6.1210   -2.0410 ha        1 MOL      0.174823
     98 H42         2.1030    7.4840    1.6790 ha        1 MOL      0.174823
     99 H43         0.7880    8.4280   -3.0000 ha        1 MOL      0.128672
    100 H44         2.1740    9.7360    0.8430 ha        1 MOL      0.128672
    101 H45         1.2260   10.5720   -2.5200 ho        1 MOL      0.347705
    102 N10         1.1280    3.0710    2.5360 n         1 MOL     -0.442146
    103 C34         0.4900    1.8650    3.1100 c3        1 MOL      0.074713
    104 C35         0.0020    0.8690    2.0700 c         1 MOL      0.546297
    105 O15         0.8020    0.3450    1.2930 o         1 MOL     -0.490501
    106 C36         1.3060    1.2970    4.2210 c3        1 MOL      0.112874
    107 C37         0.6730    0.0390    4.7530 c3        1 MOL      0.005762
    108 C38         1.3940    2.4650    5.3030 c3        1 MOL     -0.448888
    109 C39        -0.6570    0.1290    5.4950 c3        1 MOL     -0.277873
    110 H46         0.7380    3.9130    2.9230 hn        1 MOL      0.252923
    111 H47        -0.4490    2.2980    3.4550 h1        1 MOL      0.071101
    112 H48         2.3190    1.0590    3.8830 hc        1 MOL      0.099529
    113 H49         1.3910   -0.4100    5.4450 hc        1 MOL      0.016492
    114 H50         0.5700   -0.6030    3.8670 hc        1 MOL      0.016492
    115 H51         1.6660    2.1700    6.3210 hc        1 MOL      0.124709
    116 H52         2.2040    3.1410    5.0330 hc        1 MOL      0.124709
    117 H53         0.4270    2.9770    5.2570 hc        1 MOL      0.124709
    118 H54        -1.3590    0.6780    4.8710 hc        1 MOL      0.071320
    119 H55        -0.9400   -0.9070    5.6890 hc        1 MOL      0.071320
    120 H56        -0.4560    0.6620    6.4240 hc        1 MOL      0.071320
    121 N11        -1.3450    0.6630    1.9720 n         1 MOL     -0.573481
    122 C40        -2.0340   -0.0570    0.8370 c3        1 MOL      0.117650
    123 C41        -3.4780    0.3300    0.5430 c         1 MOL      0.557905
    124 O16        -4.2820    0.5060    1.4420 o         1 MOL     -0.496418
    125 C42        -1.8820   -1.5440    0.9810 c3        1 MOL      0.246259
    126 O17        -2.6420   -2.2240    0.0120 oh        1 MOL     -0.661849
    127 H57        -1.8950    1.2030    2.6220 hn        1 MOL      0.296613
    128 H58        -1.5000    0.0860   -0.0950 h1        1 MOL      0.015611
    129 H59        -2.3700   -1.7800    1.9340 h1        1 MOL      0.033698
    130 H60        -0.8480   -1.8640    1.1170 h1        1 MOL      0.033698
    131 H61        -2.9310   -3.0750    0.3490 ho        1 MOL      0.426291
    132 N12        -3.8450    0.3610   -0.7320 n         1 MOL     -0.581370
    133 C43        -5.2390    0.2030   -1.1680 c3        1 MOL      0.207805
    134 C44        -5.5000   -0.6930   -2.3510 c         1 MOL      0.594634
    135 O18        -4.5810   -0.8870   -3.1600 o         1 MOL     -0.616515
    136 C45        -5.7910    1.5870   -1.3210 c3        1 MOL      0.000887
    137 H62        -3.1450    0.3960   -1.4500 hn        1 MOL      0.267898
    138 H63        -5.7040   -0.2630   -0.3000 h1        1 MOL      0.074323
    139 H64        -6.6920    1.4960   -1.9280 hc        1 MOL      0.005266
    140 H65        -5.8850    2.1080   -0.3570 hc        1 MOL      0.005266
    141 H66        -5.1350    2.2450   -1.8980 hc        1 MOL      0.005266
    142 N13        -6.6310   -1.3010   -2.6220 n         1 MOL     -0.592132
    143 C46        -7.9520   -1.1990   -1.9220 c3        1 MOL      0.409401
    144 C47        -8.9710   -0.1910   -2.7010 c         1 MOL      0.639709
    145 O19        -8.8810   -0.0810   -3.9470 o         1 MOL     -0.580904
    146 C48        -8.4920   -2.5820   -1.8340 c3        1 MOL     -0.651580
    147 H67        -6.5460   -1.9090   -3.4310 hn        1 MOL      0.298348
    148 H68        -7.6880   -0.6710   -1.0040 h1        1 MOL     -0.052820
    149 H69        -7.7820   -3.1020   -1.1920 hc        1 MOL      0.189291
    150 H70        -9.5340   -2.6050   -1.5210 hc        1 MOL      0.189291
    151 H71        -8.4790   -2.9680   -2.8530 hc        1 MOL      0.189291
    152 N14        -9.8740    0.4910   -2.0060 n         1 MOL     -0.668482
    153 C49       -10.3010    0.2150   -0.5960 c3        1 MOL      0.011966
    154 C50        -9.8570    1.3160    0.3400 c         1 MOL      0.508144
    155 O20        -9.5230    0.9410    1.4580 o         1 MOL     -0.529634
    156 C51       -11.8300    0.0390   -0.5600 c3        1 MOL      0.233783
    157 C52       -12.3440   -0.2090    0.8250 c3        1 MOL     -0.319492
    158 C53       -13.7710   -0.7990    0.8320 c         1 MOL      0.684094
    159 O21       -13.9980   -1.8920    0.2330 o         1 MOL     -0.666334
    160 O22       -14.6890   -0.1530    1.4380 o         1 MOL     -0.666334
    161 H72       -10.3580    1.2430   -2.4760 hn        1 MOL      0.344292
    162 H73        -9.8590   -0.7280   -0.2810 h1        1 MOL      0.087561
    163 H74       -12.0660   -0.7680   -1.2490 hc        1 MOL     -0.035565
    164 H75       -12.1750    1.0070   -0.9230 hc        1 MOL     -0.035565
    165 H76       -12.2920    0.7330    1.3750 hc        1 MOL      0.073709
    166 H77       -11.6630   -0.9310    1.2690 hc        1 MOL      0.073709
    167 N15        -9.5720    2.5530   -0.0780 n         1 MOL     -0.316450
    168 C54        -8.9520    3.5840    0.7340 c3        1 MOL     -0.305506
    169 H78        -8.3900    3.1190    1.5440 h1        1 MOL      0.137863
    170 H79        -8.2760    4.1760    0.1170 h1        1 MOL      0.137863
    171 H80        -9.7240    4.2300    1.1530 h1        1 MOL      0.137863
    172 H81        -9.7490    2.8340   -1.0420 hn        1 MOL      0.257394
    173 Ca1         2.7020    0.3910   -0.6170 Ca        1 MOL      1.702744
    174 O23         0.4700   -0.9370   -1.3670 oh        1 MOL     -0.804484
    175 H82        -0.1240   -0.3900   -1.8780 ho        1 MOL      0.385387
    176 H83         0.9770   -1.4200   -2.0300 ho        1 MOL      0.385387
    177 O24         0.7040    2.1190   -1.3070 oh        1 MOL     -0.804484
    178 H84        -0.1310    2.4690   -0.9910 ho        1 MOL      0.385387
    179 H85         0.6280    2.1380   -2.2590 ho        1 MOL      0.385387
    180 O25         3.4450    2.0580   -2.6230 oh        1 MOL     -0.804484
    181 H86         4.0870    2.0530   -3.3400 ho        1 MOL      0.385387
    182 H87         3.1900    2.9820   -2.5350 ho        1 MOL      0.385387
@<TRIPOS>BOND
     1    1    2 1   
     2    1    4 1   
     3    1    5 1   
     4    1    6 1   
     5    2    3 2   
     6    2    7 1   
     7    7    8 1   
     8    7   15 1   
     9    8    9 1   
    10    8   11 1   
    11    8   16 1   
    12    9   10 2   
    13    9   19 1   
    14   11   12 1   
    15   11   17 1   
    16   11   18 1   
    17   12   13 1   
    18   12   14 1   
    19   19   20 1   
    20   19   28 1   
    21   20   21 1   
    22   20   23 1   
    23   20   29 1   
    24   21   22 2   
    25   21   41 1   
    26   23   24 1   
    27   23   30 1   
    28   23   31 1   
    29   24   25 1   
    30   24   32 1   
    31   24   33 1   
    32   25   26 1   
    33   25   34 1   
    34   25   35 1   
    35   26   27 1   
    36   26   36 1   
    37   26   37 1   
    38   27   38 1   
    39   27   39 1   
    40   27   40 1   
    41   41   42 1   
    42   41   49 1   
    43   42   43 1   
    44   42   45 1   
    45   42   50 1   
    46   43   44 2   
    47   43   53 1   
    48   45   46 1   
    49   45   51 1   
    50   45   52 1   
    51   46   47 1   
    52   46   48 1   
    53   53   54 1   
    54   53   57 1   
    55   54   55 1   
    56   54   58 1   
    57   54   59 1   
    58   55   56 2   
    59   55   60 1   
    60   60   61 1   
    61   60   68 1   
    62   61   62 1   
    63   61   64 1   
    64   61   69 1   
    65   62   63 2   
    66   62   74 1   
    67   64   65 1   
    68   64   70 1   
    69   64   71 1   
    70   65   66 1   
    71   65   67 2   
    72   66   72 1   
    73   66   73 1   
    74   74   75 1   
    75   74   78 1   
    76   75   76 1   
    77   75   79 1   
    78   75   80 1   
    79   76   77 2   
    80   76   81 1   
    81   81   82 1   
    82   81   93 1   
    83   82   83 1   
    84   82   85 1   
    85   82   94 1   
    86   83   84 2   
    87   83  102 1   
    88   85   86 1   
    89   85   95 1   
    90   85   96 1   
    91   86   87 ar  
    92   86   88 ar  
    93   87   89 ar  
    94   87   97 1   
    95   88   90 ar  
    96   88   98 1   
    97   89   91 ar  
    98   89   99 1   
    99   90   91 ar  
   100   90  100 1   
   101   91   92 1   
   102   92  101 1   
   103  102  103 1   
   104  102  110 1   
   105  103  104 1   
   106  103  106 1   
   107  103  111 1   
   108  104  105 2   
   109  104  121 1   
   110  106  107 1   
   111  106  108 1   
   112  106  112 1   
   113  107  109 1   
   114  107  113 1   
   115  107  114 1   
   116  108  115 1   
   117  108  116 1   
   118  108  117 1   
   119  109  118 1   
   120  109  119 1   
   121  109  120 1   
   122  121  122 1   
   123  121  127 1   
   124  122  123 1   
   125  122  125 1   
   126  122  128 1   
   127  123  124 2   
   128  123  132 1   
   129  125  126 1   
   130  125  129 1   
   131  125  130 1   
   132  126  131 1   
   133  132  133 1   
   134  132  137 1   
   135  133  134 1   
   136  133  136 1   
   137  133  138 1   
   138  134  135 2   
   139  134  142 1   
   140  136  139 1   
   141  136  140 1   
   142  136  141 1   
   143  142  143 1   
   144  142  147 1   
   145  143  144 1   
   146  143  146 1   
   147  143  148 1   
   148  144  145 2   
   149  144  152 1   
   150  146  149 1   
   151  146  150 1   
   152  146  151 1   
   153  152  153 1   
   154  152  161 1   
   155  153  154 1   
   156  153  156 1   
   157  153  162 1   
   158  154  155 2   
   159  154  167 1   
   160  156  157 1   
   161  156  163 1   
   162  156  164 1   
   163  157  158 1   
   164  157  165 1   
   165  157  166 1   
   166  158  159 1   
   167  158  160 1   
   168  167  168 1   
   169  167  172 1   
   170  168  169 1   
   171  168  170 1   
   172  168  171 1   
   173  174  175 1   
   174  174  176 1   
   175  177  178 1   
   176  177  179 1   
   177  180  181 1   
   178  180  182 1   
@<TRIPOS>SUBSTRUCTURE
     1 MOL         1 TEMP              0 ****  ****    0 ROOT
