@<TRIPOS>MOLECULE
MOL
  189   185     1     0     0
SMALL
resp


@<TRIPOS>ATOM
      1 C1          3.6970    6.5260   -2.8570 c3        1 MOL     -0.275909
      2 C2          3.8110    5.0610   -2.4270 c         1 MOL      0.697891
      3 O1          3.6810    4.1860   -3.2530 o         1 MOL     -0.603340
      4 H1          3.2600    6.5780   -3.8550 hc        1 MOL      0.068776
      5 H2          3.0610    7.0630   -2.1540 hc        1 MOL      0.068776
      6 H3          4.6890    6.9790   -2.8710 hc        1 MOL      0.068776
      7 N1          3.9690    4.7600   -1.1210 n         1 MOL     -0.531755
      8 C3          3.8070    3.3990   -0.5080 c3        1 MOL      0.019254
      9 C4          2.3580    3.1390    0.0590 c         1 MOL      0.426611
     10 O2          2.2310    2.0870    0.7800 o         1 MOL     -0.514475
     11 C5          4.8470    3.3160    0.6490 c3        1 MOL     -0.203097
     12 C6          4.7280    4.4790    1.6890 c         1 MOL      0.700398
     13 O3          4.3270    4.1660    2.8580 o         1 MOL     -0.691657
     14 O4          4.8440    5.6760    1.3140 o         1 MOL     -0.691657
     15 H4          4.3250    5.4900   -0.5130 hn        1 MOL      0.317756
     16 H5          3.8250    2.5880   -1.2390 h1        1 MOL      0.133706
     17 H6          5.7860    3.4930    0.1160 hc        1 MOL      0.052741
     18 H7          4.8080    2.3560    1.1700 hc        1 MOL      0.052741
     19 N2          1.3250    3.9930   -0.1370 n         1 MOL     -0.269106
     20 C7         -0.0070    3.7940    0.4190 c3        1 MOL      0.207583
     21 C8         -0.6930    3.2240   -0.8670 c         1 MOL      0.457818
     22 O5         -0.4610    3.8540   -1.9250 o         1 MOL     -0.580611
     23 C9         -0.5320    5.0520    1.0970 c3        1 MOL     -0.055694
     24 C10         0.3950    5.8510    2.0560 c3        1 MOL     -0.034929
     25 C11         0.9550    5.1360    3.2500 c3        1 MOL      0.137914
     26 C12         1.8700    6.1680    3.8950 c3        1 MOL     -0.093417
     27 N3          2.7200    5.4480    4.9450 n4        1 MOL     -0.206963
     28 H8          1.5220    4.8930   -0.5600 hn        1 MOL      0.227243
     29 H9          0.0710    3.0670    1.2240 h1        1 MOL      0.027796
     30 H10        -1.4390    4.7890    1.6420 hc        1 MOL      0.029647
     31 H11        -0.7780    5.8040    0.3370 hc        1 MOL      0.029647
     32 H12        -0.1010    6.7060    2.5100 hc        1 MOL      0.010260
     33 H13         1.2810    6.1030    1.4760 hc        1 MOL      0.010260
     34 H14         1.4970    4.2490    2.9290 hc        1 MOL     -0.013359
     35 H15         0.1120    4.7800    3.8430 hc        1 MOL     -0.013359
     36 H16         1.1820    6.7980    4.4700 hx        1 MOL      0.106028
     37 H17         2.4730    6.7030    3.1730 hx        1 MOL      0.106028
     38 H18         2.1130    4.8110    5.4400 hn        1 MOL      0.259997
     39 H19         3.4770    4.9660    4.4840 hn        1 MOL      0.259997
     40 H20         3.0530    6.0890    5.6480 hn        1 MOL      0.259997
     41 N4         -1.3950    2.1580   -0.9110 n         1 MOL     -0.396333
     42 C13        -1.8800    1.2000    0.0820 c3        1 MOL      0.048285
     43 C14        -2.3630    1.8010    1.4540 c         1 MOL      0.531033
     44 O6         -1.7140    1.5980    2.4670 o         1 MOL     -0.535501
     45 C15        -0.8790    0.0770    0.2340 c3        1 MOL     -0.114890
     46 C16        -0.2650   -0.5060   -1.0720 c         1 MOL      0.833708
     47 O7          0.9270   -0.9100   -1.2130 o         1 MOL     -0.804768
     48 O8         -0.9880   -0.6500   -2.0750 o         1 MOL     -0.804768
     49 H21        -1.5280    1.8080   -1.8530 hn        1 MOL      0.292862
     50 H22        -2.7850    0.8070   -0.3940 h1        1 MOL      0.053875
     51 H23        -1.3110   -0.7640    0.7690 hc        1 MOL      0.040112
     52 H24        -0.0570    0.3890    0.8740 hc        1 MOL      0.040112
     53 N5         -3.3050    2.8240    1.5180 n         1 MOL     -0.447870
     54 C17        -4.0280    3.3340    0.3640 c3        1 MOL      0.058881
     55 C18        -5.0930    4.3620    0.6460 c         1 MOL      0.514136
     56 O9         -5.0060    5.0460    1.6630 o         1 MOL     -0.572441
     57 H25        -3.4700    3.3300    2.3780 hn        1 MOL      0.300258
     58 H26        -4.5090    2.4970   -0.1280 h1        1 MOL      0.025023
     59 H27        -3.3710    3.8610   -0.3250 h1        1 MOL      0.025023
     60 N6         -6.0450    4.5860   -0.1940 n         1 MOL     -0.328433
     61 C19        -6.4360    3.7540   -1.3650 c3        1 MOL      0.064960
     62 C20        -7.2920    2.5730   -0.9350 c         1 MOL      0.493014
     63 O10        -7.7150    2.5450    0.1920 o         1 MOL     -0.478520
     64 C21        -7.2320    4.6510   -2.2740 c3        1 MOL     -0.244802
     65 C22        -8.3040    5.4940   -1.6740 c         1 MOL      0.806910
     66 O11        -9.4960    5.2790   -1.8960 o         1 MOL     -0.676371
     67 O12        -7.9820    6.4600   -1.0150 o         1 MOL     -0.676371
     68 H28        -6.6110    5.4190   -0.1370 hn        1 MOL      0.250557
     69 H29        -5.5730    3.3630   -1.9160 h1        1 MOL     -0.010708
     70 H30        -7.6890    3.9790   -3.0000 hc        1 MOL      0.020228
     71 H31        -6.5900    5.4550   -2.6220 hc        1 MOL      0.020228
     72 N7         -7.4110    1.5580   -1.7760 n         1 MOL     -0.230049
     73 C23        -8.1470    0.3540   -1.4340 c3        1 MOL     -0.249536
     74 C24        -7.2710   -0.8770   -0.9690 c         1 MOL      0.553395
     75 O13        -7.8890   -1.7630   -0.3810 o         1 MOL     -0.527254
     76 H32        -7.0360    1.5630   -2.7130 hn        1 MOL      0.253336
     77 H33        -8.6130    0.0480   -2.3770 h1        1 MOL      0.132706
     78 H34        -8.8310    0.5260   -0.6020 h1        1 MOL      0.132706
     79 N8         -5.9390   -0.9360   -1.1620 n         1 MOL     -0.354811
     80 C25        -5.1450   -2.1130   -0.8690 c3        1 MOL     -0.012969
     81 C26        -4.5890   -2.2840    0.5890 c         1 MOL      0.544555
     82 O14        -4.1500   -1.3330    1.2200 o         1 MOL     -0.509210
     83 C27        -3.9830   -1.9710   -1.7760 c3        1 MOL      0.239204
     84 C28        -4.3520   -1.9320   -3.2820 c3        1 MOL     -0.300987
     85 O15        -3.0970   -3.1010   -1.5500 oh        1 MOL     -0.672295
     86 H35        -5.5040   -0.1920   -1.6990 hn        1 MOL      0.186548
     87 H36        -5.7470   -2.9520   -1.2350 h1        1 MOL      0.075219
     88 H37        -3.5350   -1.0300   -1.4750 h1        1 MOL      0.052738
     89 H38        -2.5240   -3.1700   -2.3210 ho        1 MOL      0.358387
     90 H39        -5.0760   -1.1740   -3.5750 hc        1 MOL      0.076546
     91 H40        -3.3680   -1.9030   -3.7520 hc        1 MOL      0.076546
     92 H41        -4.8720   -2.8620   -3.5200 hc        1 MOL      0.076546
     93 N9         -4.5850   -3.5540    0.9880 n         1 MOL     -0.302961
     94 C29        -4.0420   -4.1990    2.1820 c3        1 MOL     -0.175605
     95 C30        -2.6260   -4.8250    1.9220 c         1 MOL      0.535985
     96 O16        -1.8830   -5.1610    2.9040 o         1 MOL     -0.506606
     97 C31        -5.0880   -5.1860    2.7830 c3        1 MOL      0.313283
     98 C32        -6.5140   -4.6780    2.6740 c3        1 MOL     -0.233232
     99 C33        -4.7500   -5.5360    4.2630 c3        1 MOL     -0.140012
    100 C34        -6.7790   -3.3240    3.2870 c3        1 MOL     -0.117207
    101 H42        -5.0550   -4.1340    0.3080 hn        1 MOL      0.206577
    102 H43        -4.0050   -3.4150    2.9280 h1        1 MOL      0.128806
    103 H44        -4.9900   -6.1410    2.2740 hc        1 MOL     -0.076110
    104 H45        -7.1390   -5.4770    3.0700 hc        1 MOL      0.063574
    105 H46        -6.7900   -4.5880    1.6280 hc        1 MOL      0.063574
    106 H47        -5.0060   -4.7080    4.9190 hc        1 MOL      0.030120
    107 H48        -5.3690   -6.3920    4.5560 hc        1 MOL      0.030120
    108 H49        -3.6720   -5.6920    4.2590 hc        1 MOL      0.030120
    109 H50        -5.9850   -2.6420    2.9790 hc        1 MOL      0.056563
    110 H51        -7.7180   -2.8940    2.9630 hc        1 MOL      0.056563
    111 H52        -6.6430   -3.3610    4.3680 hc        1 MOL      0.056563
    112 N10        -2.1400   -4.8910    0.6380 n         1 MOL     -0.490942
    113 C35        -0.9050   -5.5560    0.2640 c3        1 MOL     -0.013122
    114 C36         0.3460   -4.6280   -0.0310 c         1 MOL      0.732218
    115 O17         0.4520   -4.0880   -1.1520 o         1 MOL     -0.767492
    116 C37        -1.2030   -6.6370   -0.8120 c3        1 MOL      0.408221
    117 C38        -2.5160   -7.4580   -0.6730 c3        1 MOL     -0.406799
    118 O18        -0.2320   -7.6420   -0.5640 oh        1 MOL     -0.625326
    119 H53        -2.7650   -4.5950   -0.0970 hn        1 MOL      0.381234
    120 H54        -0.6250   -6.1240    1.1460 h1        1 MOL      0.091560
    121 H55        -1.1130   -6.1050   -1.7530 h1        1 MOL     -0.055115
    122 H56         0.3650   -7.6930   -1.3120 ho        1 MOL      0.388341
    123 H57        -2.5940   -7.8170    0.3550 hc        1 MOL      0.116114
    124 H58        -3.3020   -6.7380   -0.8550 hc        1 MOL      0.116114
    125 H59        -2.5830   -8.3690   -1.2650 hc        1 MOL      0.116114
    126 N11         1.1490   -4.3530    1.0450 n         1 MOL     -0.709856
    127 C39         1.9850   -3.1140    1.2480 c3        1 MOL      0.588040
    128 C40         3.4200   -3.2880    1.5780 c         1 MOL      0.503218
    129 O19         3.7490   -4.0910    2.4790 o         1 MOL     -0.534956
    130 C41         1.3060   -2.2650    2.3680 c3        1 MOL      0.060678
    131 C42         2.0750   -0.9980    2.7330 c3        1 MOL     -0.094983
    132 O20         1.3420   -2.9870    3.5830 oh        1 MOL     -0.602219
    133 H60         0.9170   -4.9340    1.8350 hn        1 MOL      0.330935
    134 H61         1.9770   -2.6460    0.2650 h1        1 MOL     -0.103238
    135 H62         0.2930   -2.0780    2.0020 h1        1 MOL      0.082833
    136 H63         0.7630   -2.4890    4.1550 ho        1 MOL      0.400937
    137 H64         1.4400   -0.4470    3.4170 hc        1 MOL      0.013347
    138 H65         3.0310   -1.2150    3.2080 hc        1 MOL      0.013347
    139 H66         2.2890   -0.4170    1.8320 hc        1 MOL      0.013347
    140 N12         4.3160   -2.6650    0.8280 n         1 MOL     -0.421233
    141 C43         5.7620   -2.7630    0.9960 c3        1 MOL     -0.050108
    142 C44         6.4940   -2.2560   -0.2090 c         1 MOL      0.745020
    143 O21         7.5810   -2.7740   -0.4110 o         1 MOL     -0.601213
    144 C45         6.2420   -1.9010    2.1970 c3        1 MOL     -0.384375
    145 C46         5.9570   -0.3400    2.2030 c3        1 MOL      0.232883
    146 C47         6.1030    0.3480    3.5810 c3        1 MOL     -0.097943
    147 C48         5.2650   -0.1030    4.7730 c3        1 MOL      0.140130
    148 N13         5.6590    0.6520    5.9700 n4        1 MOL     -0.335624
    149 H67         3.8850   -1.9520    0.2640 hn        1 MOL      0.307039
    150 H68         5.9430   -3.8400    1.1080 h1        1 MOL      0.164328
    151 H69         7.3260   -1.9270    2.3630 hc        1 MOL      0.111564
    152 H70         5.7690   -2.2340    3.1250 hc        1 MOL      0.111564
    153 H71         4.9580   -0.2430    1.8010 hc        1 MOL     -0.028951
    154 H72         6.6610    0.1090    1.5010 hc        1 MOL     -0.028951
    155 H73         6.0340    1.4180    3.4610 hc        1 MOL      0.016460
    156 H74         7.0980    0.0140    3.8970 hc        1 MOL      0.016460
    157 H75         5.4340   -1.1780    4.8660 hx        1 MOL      0.051363
    158 H76         4.2300    0.1370    4.5040 hx        1 MOL      0.051363
    159 H77         5.8480    1.6040    5.7030 hn        1 MOL      0.292963
    160 H78         5.0320    0.5270    6.7480 hn        1 MOL      0.292963
    161 H79         6.5920    0.3220    6.1810 hn        1 MOL      0.292963
    162 N14         5.8740   -1.4010   -1.0470 n         1 MOL     -0.429133
    163 C49         6.3880   -0.8980   -2.3580 c3        1 MOL     -0.252562
    164 C50         7.0410    0.5040   -2.1550 c         1 MOL      0.481174
    165 O22         6.4670    1.4300   -1.5670 o         1 MOL     -0.446605
    166 C51         5.3630   -0.8370   -3.4410 c3        1 MOL      0.107080
    167 C52         5.0500   -2.2190   -3.9670 c3        1 MOL     -0.031807
    168 C53         4.1330   -2.9000   -3.0160 c         1 MOL      0.489620
    169 O23         3.0320   -2.3850   -2.8100 o         1 MOL     -0.632022
    170 O24         4.4500   -4.0140   -2.5780 o         1 MOL     -0.632022
    171 H80         4.9710   -1.0950   -0.7320 hn        1 MOL      0.309400
    172 H81         7.0570   -1.6340   -2.8040 h1        1 MOL      0.157613
    173 H82         5.9040   -0.3400   -4.2480 hc        1 MOL     -0.023535
    174 H83         4.5090   -0.2230   -3.1550 hc        1 MOL     -0.023535
    175 H84         6.0070   -2.7060   -4.1520 hc        1 MOL      0.004722
    176 H85         4.5290   -2.1400   -4.9160 hc        1 MOL      0.004722
    177 N15         8.2660    0.5600   -2.7140 n         1 MOL     -0.253185
    178 C54         9.1230    1.6800   -2.7500 c3        1 MOL     -0.140408
    179 H86         9.7560    1.6810   -1.8630 h1        1 MOL      0.081751
    180 H87         9.7480    1.6320   -3.6420 h1        1 MOL      0.081751
    181 H88         8.5280    2.5930   -2.7710 h1        1 MOL      0.081751
    182 H89         8.5610   -0.2570   -3.2230 hn        1 MOL      0.251362
    183 Ca1         0.5930   -2.3860   -3.3930 Ca        1 MOL      1.808280
    184 O25         1.4990    0.0300   -3.9570 oh        1 MOL     -0.954298
    185 H90         1.8330    0.5610   -4.6820 ho        1 MOL      0.468947
    186 H91         1.9150    0.4080   -3.1850 ho        1 MOL      0.468947
    187 O26         1.5740   -2.6620   -5.7890 oh        1 MOL     -0.954298
    188 H92         1.5160   -3.3960   -6.4070 ho        1 MOL      0.468947
    189 H93         1.9690   -1.9480   -6.3030 ho        1 MOL      0.468947
@<TRIPOS>BOND
     1    1    2 1   
     2    1    4 1   
     3    1    5 1   
     4    1    6 1   
     5    2    3 2   
     6    2    7 1   
     7    7    8 1   
     8    7   15 1   
     9    8    9 1   
    10    8   11 1   
    11    8   16 1   
    12    9   10 2   
    13    9   19 1   
    14   11   12 1   
    15   11   17 1   
    16   11   18 1   
    17   12   13 1   
    18   12   14 1   
    19   19   20 1   
    20   19   28 1   
    21   20   21 1   
    22   20   23 1   
    23   20   29 1   
    24   21   22 2   
    25   21   41 1   
    26   23   24 1   
    27   23   30 1   
    28   23   31 1   
    29   24   25 1   
    30   24   32 1   
    31   24   33 1   
    32   25   26 1   
    33   25   34 1   
    34   25   35 1   
    35   26   27 1   
    36   26   36 1   
    37   26   37 1   
    38   27   38 1   
    39   27   39 1   
    40   27   40 1   
    41   41   42 1   
    42   41   49 1   
    43   42   43 1   
    44   42   45 1   
    45   42   50 1   
    46   43   44 2   
    47   43   53 1   
    48   45   46 1   
    49   45   51 1   
    50   45   52 1   
    51   46   47 1   
    52   46   48 1   
    53   53   54 1   
    54   53   57 1   
    55   54   55 1   
    56   54   58 1   
    57   54   59 1   
    58   55   56 2   
    59   55   60 1   
    60   60   61 1   
    61   60   68 1   
    62   61   62 1   
    63   61   64 1   
    64   61   69 1   
    65   62   63 2   
    66   62   72 1   
    67   64   65 1   
    68   64   70 1   
    69   64   71 1   
    70   65   66 1   
    71   65   67 1   
    72   72   73 1   
    73   72   76 1   
    74   73   74 1   
    75   73   77 1   
    76   73   78 1   
    77   74   75 2   
    78   74   79 1   
    79   79   80 1   
    80   79   86 1   
    81   80   81 1   
    82   80   83 1   
    83   80   87 1   
    84   81   82 2   
    85   81   93 1   
    86   83   84 1   
    87   83   85 1   
    88   83   88 1   
    89   84   90 1   
    90   84   91 1   
    91   84   92 1   
    92   85   89 1   
    93   93   94 1   
    94   93  101 1   
    95   94   95 1   
    96   94   97 1   
    97   94  102 1   
    98   95   96 2   
    99   95  112 1   
   100   97   98 1   
   101   97   99 1   
   102   97  103 1   
   103   98  100 1   
   104   98  104 1   
   105   98  105 1   
   106   99  106 1   
   107   99  107 1   
   108   99  108 1   
   109  100  109 1   
   110  100  110 1   
   111  100  111 1   
   112  112  113 1   
   113  112  119 1   
   114  113  114 1   
   115  113  116 1   
   116  113  120 1   
   117  114  115 2   
   118  114  126 1   
   119  116  117 1   
   120  116  118 1   
   121  116  121 1   
   122  117  123 1   
   123  117  124 1   
   124  117  125 1   
   125  118  122 1   
   126  126  127 1   
   127  126  133 1   
   128  127  128 1   
   129  127  130 1   
   130  127  134 1   
   131  128  129 2   
   132  128  140 1   
   133  130  131 1   
   134  130  132 1   
   135  130  135 1   
   136  131  137 1   
   137  131  138 1   
   138  131  139 1   
   139  132  136 1   
   140  140  141 1   
   141  140  149 1   
   142  141  142 1   
   143  141  144 1   
   144  141  150 1   
   145  142  143 2   
   146  142  162 1   
   147  144  145 1   
   148  144  151 1   
   149  144  152 1   
   150  145  146 1   
   151  145  153 1   
   152  145  154 1   
   153  146  147 1   
   154  146  155 1   
   155  146  156 1   
   156  147  148 1   
   157  147  157 1   
   158  147  158 1   
   159  148  159 1   
   160  148  160 1   
   161  148  161 1   
   162  162  163 1   
   163  162  171 1   
   164  163  164 1   
   165  163  166 1   
   166  163  172 1   
   167  164  165 2   
   168  164  177 1   
   169  166  167 1   
   170  166  173 1   
   171  166  174 1   
   172  167  168 1   
   173  167  175 1   
   174  167  176 1   
   175  168  169 1   
   176  168  170 1   
   177  177  178 1   
   178  177  182 1   
   179  178  179 1   
   180  178  180 1   
   181  178  181 1   
   182  184  185 1   
   183  184  186 1   
   184  187  188 1   
   185  187  189 1   
@<TRIPOS>SUBSTRUCTURE
     1 MOL         1 TEMP              0 ****  ****    0 ROOT
