@<TRIPOS>MOLECULE
MOL
  192   187     1     0     0
SMALL
resp


@<TRIPOS>ATOM
      1 C1         -3.6620   -4.9980   -3.4320 c3        1 MOL     -0.470635
      2 C2         -4.2400   -4.1560   -2.2210 c         1 MOL      0.712168
      3 O1         -3.5570   -3.7720   -1.2830 o         1 MOL     -0.701417
      4 H1         -2.6330   -5.2860   -3.2160 hc        1 MOL      0.124305
      5 H2         -4.2660   -5.8940   -3.5750 hc        1 MOL      0.124305
      6 H3         -3.6860   -4.3950   -4.3390 hc        1 MOL      0.124305
      7 N1         -5.5450   -3.8810   -2.1900 n         1 MOL     -0.664743
      8 C3         -6.4090   -3.1200   -1.2220 c3        1 MOL      0.439640
      9 C4         -5.7450   -1.7170   -0.9500 c         1 MOL      0.282655
     10 O2         -5.5800   -1.3310    0.1910 o         1 MOL     -0.343334
     11 C5         -6.8610   -3.8950    0.0190 c3        1 MOL     -0.353067
     12 C6         -5.7240   -4.6200    0.7040 c         1 MOL      1.050703
     13 O3         -4.8670   -4.0060    1.3410 o         1 MOL     -0.826742
     14 O4         -5.7530   -5.8450    0.7690 o         1 MOL     -0.826742
     15 H4         -6.1070   -4.2460   -2.9480 hn        1 MOL      0.288422
     16 H5         -7.2820   -2.8430   -1.8140 h1        1 MOL     -0.001315
     17 H6         -7.6570   -4.5360   -0.3630 hc        1 MOL      0.069236
     18 H7         -7.2060   -3.1860    0.7760 hc        1 MOL      0.069236
     19 N2         -5.4530   -1.0200   -2.0530 n         1 MOL     -0.470960
     20 C7         -4.8930    0.3190   -2.2150 c3        1 MOL      0.124404
     21 C8         -5.7820    1.4610   -1.7600 c         1 MOL      0.432308
     22 O5         -5.9760    2.3540   -2.5630 o         1 MOL     -0.560917
     23 C9         -3.4030    0.4700   -1.6210 c3        1 MOL     -0.043946
     24 C10        -2.7140    1.7780   -2.1370 c3        1 MOL     -0.190626
     25 C11        -2.4960   -0.7840   -1.9290 c3        1 MOL     -0.067991
     26 C12        -2.5190    2.1260   -3.6120 c3        1 MOL     -0.390905
     27 H8         -5.7920   -1.4120   -2.9220 hn        1 MOL      0.276673
     28 H9         -4.8590    0.3250   -3.3020 h1        1 MOL      0.050445
     29 H10        -3.5260    0.5550   -0.5390 hc        1 MOL     -0.043758
     30 H11        -1.6920    1.7320   -1.7560 hc        1 MOL      0.120595
     31 H12        -3.2600    2.6380   -1.7590 hc        1 MOL      0.120595
     32 H13        -2.6040   -1.1100   -2.9690 hc        1 MOL      0.048949
     33 H14        -1.4310   -0.6410   -1.7110 hc        1 MOL      0.048949
     34 H15        -2.7920   -1.6390   -1.3240 hc        1 MOL      0.048949
     35 H16        -1.9120    3.0420   -3.6760 hc        1 MOL      0.109803
     36 H17        -2.1030    1.2620   -4.1200 hc        1 MOL      0.109803
     37 H18        -3.4470    2.4140   -4.0880 hc        1 MOL      0.109803
     38 N3         -6.4670    1.3010   -0.6270 n         1 MOL     -0.247188
     39 C13        -7.4500    2.2360   -0.1360 c3        1 MOL      0.148483
     40 C14        -7.1160    3.7230   -0.2590 c         1 MOL      0.566588
     41 O6         -7.9830    4.5400   -0.4260 o         1 MOL     -0.596347
     42 C15        -7.7940    1.7630    1.3030 c3        1 MOL     -0.294463
     43 C16        -8.7310    0.5680    1.3990 c         1 MOL      0.704979
     44 O7         -8.7940   -0.0860    2.4770 o         1 MOL     -0.715795
     45 O8         -9.3700    0.1770    0.4400 o         1 MOL     -0.715795
     46 H19        -6.2360    0.5430   -0.0040 hn        1 MOL      0.239655
     47 H20        -8.3440    2.0890   -0.7470 h1        1 MOL      0.014714
     48 H21        -8.2700    2.5980    1.8120 hc        1 MOL      0.073737
     49 H22        -6.9130    1.6830    1.9410 hc        1 MOL      0.073737
     50 N4         -5.9090    4.2520   -0.1990 n         1 MOL     -0.505889
     51 C17        -4.7410    3.7990    0.6030 c3        1 MOL      0.018119
     52 C18        -4.9830    4.0570    2.1300 c         1 MOL      0.492254
     53 O9         -6.0010    4.6120    2.5570 o         1 MOL     -0.536375
     54 H23        -5.7950    5.1460   -0.6570 hn        1 MOL      0.293820
     55 H24        -3.9340    4.4530    0.2710 h1        1 MOL      0.085177
     56 H25        -4.6230    2.7410    0.3800 h1        1 MOL      0.085177
     57 N5         -4.1450    3.5570    3.0310 n         1 MOL     -0.386398
     58 C19        -2.7570    2.9430    2.9100 c3        1 MOL     -0.033780
     59 C20        -2.6530    1.5580    2.1520 c         1 MOL      0.491220
     60 O10        -3.4790    0.6760    2.4250 o         1 MOL     -0.497030
     61 C21        -2.0300    2.9300    4.3080 c3        1 MOL     -0.317041
     62 C22        -1.9650    4.3350    4.9450 c         1 MOL      0.758037
     63 O11        -3.0180    4.7870    5.4020 o         1 MOL     -0.728731
     64 O12        -0.8560    4.9140    5.1350 o         1 MOL     -0.728731
     65 H26        -4.5000    3.5770    3.9730 hn        1 MOL      0.306711
     66 H27        -2.2800    3.6530    2.2380 h1        1 MOL      0.064512
     67 H28        -1.0590    2.4400    4.2580 hc        1 MOL      0.096381
     68 H29        -2.6760    2.2780    4.8860 hc        1 MOL      0.096381
     69 N6         -1.5760    1.2640    1.4570 n         1 MOL     -0.343456
     70 C23        -0.4230    2.1280    1.2170 c3        1 MOL     -0.097663
     71 C24        -0.6130    3.1540    0.0720 c         1 MOL      0.606174
     72 O13        -1.5880    3.8290   -0.0640 o         1 MOL     -0.480195
     73 H30        -1.5850    0.3920    0.9480 hn        1 MOL      0.306699
     74 H31         0.4170    1.4980    0.9360 h1        1 MOL      0.065113
     75 H32        -0.1150    2.7260    2.0710 h1        1 MOL      0.065113
     76 N7          0.4770    3.1880   -0.8000 n         1 MOL     -0.640174
     77 C25         0.6640    4.3240   -1.7060 c3        1 MOL      0.057117
     78 C26         1.1670    3.8910   -3.1200 c         1 MOL      0.368041
     79 O14         0.9290    4.5940   -4.0950 o         1 MOL     -0.515803
     80 C27         1.7660    5.2130   -1.1150 c3        1 MOL      0.201457
     81 C28         1.5690    5.6110    0.3670 c3        1 MOL     -0.294601
     82 C29         2.6260    6.6290    0.7000 c         1 MOL      0.639104
     83 N8          3.8130    6.0970    0.9550 n         1 MOL     -0.727856
     84 O15         2.4430    7.8400    0.7120 o         1 MOL     -0.561798
     85 H33         1.3400    2.7260   -0.5460 hn        1 MOL      0.312926
     86 H34        -0.2260    4.9530   -1.8380 h1        1 MOL      0.116934
     87 H35         1.8170    6.0840   -1.7700 hc        1 MOL     -0.023886
     88 H36         2.7410    4.7230   -1.2050 hc        1 MOL     -0.023886
     89 H37         1.6000    4.8240    1.1210 hc        1 MOL      0.107700
     90 H38         0.6280    6.1700    0.4110 hc        1 MOL      0.107700
     91 H39         3.9770    5.0970    1.0210 hn        1 MOL      0.328917
     92 H40         4.5590    6.7050    1.2430 hn        1 MOL      0.328917
     93 N9          1.8700    2.7890   -3.2980 n         1 MOL     -0.220469
     94 C30         2.5240    2.3930   -4.5230 c3        1 MOL     -0.141519
     95 C31         4.0040    1.9970   -4.4510 c         1 MOL      0.655125
     96 O16         4.6000    1.8020   -5.4640 o         1 MOL     -0.560738
     97 C32         1.7490    1.2440   -5.2340 c3        1 MOL      0.264093
     98 C33         0.4010    1.6940   -5.7770 c3        1 MOL     -0.228656
     99 C34         1.5320   -0.0290   -4.3200 c3        1 MOL     -0.228656
    100 H41         2.0640    2.1400   -2.5520 hn        1 MOL      0.265755
    101 H42         2.5510    3.1870   -5.2740 h1        1 MOL      0.113224
    102 H43         2.3100    0.9720   -6.1290 hc        1 MOL     -0.022685
    103 H44        -0.0750    0.8640   -6.2920 hc        1 MOL      0.045543
    104 H45        -0.2330    1.8470   -4.8990 hc        1 MOL      0.045543
    105 H46         0.5150    2.5570   -6.4380 hc        1 MOL      0.045543
    106 H47         0.7570   -0.6980   -4.6720 hc        1 MOL      0.045543
    107 H48         2.4720   -0.5960   -4.2940 hc        1 MOL      0.045543
    108 H49         1.3180    0.2790   -3.2940 hc        1 MOL      0.045543
    109 N10         4.5940    1.9320   -3.2290 n         1 MOL     -0.656886
    110 C35         6.0090    2.0580   -3.0440 c3        1 MOL      0.171631
    111 C36         6.5230    0.9780   -1.9740 c         1 MOL      0.431197
    112 O17         7.6990    0.8710   -1.8390 o         1 MOL     -0.538003
    113 C37         6.2790    3.5200   -2.8440 c3        1 MOL     -0.294489
    114 C38         5.9650    4.0940   -1.4790 c         1 MOL      0.638628
    115 N11         6.5810    5.1790   -1.1310 n         1 MOL     -0.774571
    116 O18         5.2410    3.5280   -0.6240 o         1 MOL     -0.560357
    117 H50         3.9640    2.0130   -2.4390 hn        1 MOL      0.307521
    118 H51         6.4850    1.8200   -3.9890 h1        1 MOL      0.095642
    119 H52         5.7410    4.0720   -3.6220 hc        1 MOL      0.106776
    120 H53         7.3190    3.6530   -3.1250 hc        1 MOL      0.106776
    121 H54         7.3760    5.4340   -1.7100 hn        1 MOL      0.368775
    122 H55         6.4600    5.3690   -0.1510 hn        1 MOL      0.368775
    123 N12         5.6880    0.3330   -1.1380 n         1 MOL     -0.241029
    124 C39         6.0970   -0.4490    0.0590 c3        1 MOL      0.141992
    125 C40         5.0580   -1.4600    0.4920 c         1 MOL      0.191781
    126 O19         3.8390   -1.2400    0.2990 o         1 MOL     -0.431816
    127 C41         6.3240    0.5570    1.1950 c3        1 MOL     -0.421081
    128 C42         7.0060    0.0890    2.4370 ca        1 MOL      0.142811
    129 C43         6.5300    0.3450    3.7090 ca        1 MOL     -0.151152
    130 C44         8.2830   -0.5070    2.2650 ca        1 MOL     -0.151152
    131 C45         7.2760   -0.0170    4.8390 ca        1 MOL     -0.326981
    132 C46         9.0010   -0.9530    3.4350 ca        1 MOL     -0.326981
    133 C47         8.4900   -0.7000    4.7280 ca        1 MOL      0.444751
    134 O20         9.2040   -1.0870    5.7750 oh        1 MOL     -0.575941
    135 H56         4.6830    0.4100   -1.2100 hn        1 MOL      0.171448
    136 H57         7.0340   -0.8980   -0.2430 h1        1 MOL      0.025369
    137 H58         5.3620    1.0060    1.4190 hc        1 MOL      0.163344
    138 H59         6.8570    1.3930    0.7660 hc        1 MOL      0.163344
    139 H60         5.5330    0.7370    3.8320 ha        1 MOL      0.147867
    140 H61         8.6740   -0.6530    1.2740 ha        1 MOL      0.147867
    141 H62         6.8320    0.0090    5.8280 ha        1 MOL      0.152576
    142 H63         9.8930   -1.5430    3.3220 ha        1 MOL      0.152576
    143 H64         8.6840   -0.9860    6.5800 ho        1 MOL      0.423407
    144 N13         5.5130   -2.5020    1.1180 n         1 MOL     -0.101645
    145 C48         4.7380   -3.7330    1.5190 c3        1 MOL     -0.166539
    146 C49         3.5950   -4.1340    0.6320 c         1 MOL      0.607243
    147 O21         2.5020   -4.5370    1.0800 o         1 MOL     -0.473013
    148 C50         4.2870   -3.5190    3.0230 c3        1 MOL      0.347761
    149 C51         3.4220   -2.3390    3.3760 c3        1 MOL     -0.557819
    150 C52         2.9060   -2.2810    4.8150 c         1 MOL      0.796813
    151 O22         3.7040   -2.4830    5.7680 o         1 MOL     -0.720493
    152 O23         1.7400   -1.8960    5.1040 o         1 MOL     -0.720493
    153 H65         6.4880   -2.3950    1.3690 hn        1 MOL      0.174246
    154 H66         5.4290   -4.5700    1.5130 h1        1 MOL      0.065467
    155 H67         5.1320   -3.5130    3.7200 hc        1 MOL     -0.077745
    156 H68         3.7410   -4.3910    3.3890 hc        1 MOL     -0.077745
    157 H69         2.6100   -2.3150    2.6430 hc        1 MOL      0.158408
    158 H70         4.0840   -1.5050    3.1480 hc        1 MOL      0.158408
    159 N14         3.7670   -3.9870   -0.6830 n         1 MOL     -0.680654
    160 C53         2.7920   -4.3750   -1.7640 c3        1 MOL      0.080022
    161 C54         3.3530   -5.0190   -3.0070 c         1 MOL      0.416257
    162 O24         2.5410   -5.3990   -3.9130 o         1 MOL     -0.493923
    163 C55         1.9160   -3.0770   -2.1370 c3        1 MOL      0.062041
    164 C56         0.4430   -3.2780   -2.4900 c3        1 MOL      0.148818
    165 C57        -0.3150   -3.5650   -1.3030 c         1 MOL      0.940211
    166 O25        -0.5550   -4.7710   -0.9350 o         1 MOL     -0.861870
    167 O26        -0.4710   -2.6560   -0.4240 o         1 MOL     -0.861870
    168 H71         4.5750   -3.4370   -0.9530 hn        1 MOL      0.277030
    169 H72         2.1060   -5.0610   -1.2610 h1        1 MOL      0.120438
    170 H73         2.3860   -2.5270   -2.9550 hc        1 MOL     -0.009864
    171 H74         1.9520   -2.4350   -1.2580 hc        1 MOL     -0.009864
    172 H75         0.4290   -4.0860   -3.2160 hc        1 MOL     -0.090050
    173 H76        -0.0080   -2.3570   -2.8770 hc        1 MOL     -0.090050
    174 N15         4.6790   -5.2180   -2.9010 n         1 MOL     -0.228768
    175 C58         5.3550   -6.0530   -3.8860 c3        1 MOL     -0.274250
    176 H77         6.3970   -6.1880   -3.5950 h1        1 MOL      0.108283
    177 H78         4.8640   -7.0250   -3.9380 h1        1 MOL      0.108283
    178 H79         5.3110   -5.5710   -4.8630 h1        1 MOL      0.108283
    179 H80         5.2080   -4.7780   -2.1680 hn        1 MOL      0.258922
    180 Ca1        -2.2490   -4.1170    1.1010 Ca        1 MOL      1.762322
    181 O27        -3.2010   -1.8460    2.1080 oh        1 MOL     -0.834347
    182 H81        -4.1020   -1.6370    1.8580 ho        1 MOL      0.401722
    183 H82        -2.8650   -1.0210    2.4710 ho        1 MOL      0.401722
    184 O28        -2.1450   -5.2680    3.5240 oh        1 MOL     -0.834347
    185 H83        -1.5180   -4.9240    4.1670 ho        1 MOL      0.401722
    186 H84        -2.4710   -6.0740    3.9080 ho        1 MOL      0.401722
    187 O29         0.0330   -3.3970    2.4470 oh        1 MOL     -0.834347
    188 H85         0.8550   -3.6010    1.9860 ho        1 MOL      0.401722
    189 H86         0.2130   -2.5900    2.9110 ho        1 MOL      0.401722
    190 O30        -3.3280   -6.4430    0.4250 oh        1 MOL     -0.834347
    191 H87        -4.2730   -6.4620    0.5840 ho        1 MOL      0.401722
    192 H88        -3.0540   -7.3550    0.5060 ho        1 MOL      0.401722
@<TRIPOS>BOND
     1    1    2 1   
     2    1    4 1   
     3    1    5 1   
     4    1    6 1   
     5    2    3 2   
     6    2    7 1   
     7    7    8 1   
     8    7   15 1   
     9    8    9 1   
    10    8   11 1   
    11    8   16 1   
    12    9   10 2   
    13    9   19 1   
    14   11   12 1   
    15   11   17 1   
    16   11   18 1   
    17   12   13 1   
    18   12   14 1   
    19   19   20 1   
    20   19   27 1   
    21   20   21 1   
    22   20   23 1   
    23   20   28 1   
    24   21   22 2   
    25   21   38 1   
    26   23   24 1   
    27   23   25 1   
    28   23   29 1   
    29   24   26 1   
    30   24   30 1   
    31   24   31 1   
    32   25   32 1   
    33   25   33 1   
    34   25   34 1   
    35   26   35 1   
    36   26   36 1   
    37   26   37 1   
    38   38   39 1   
    39   38   46 1   
    40   39   40 1   
    41   39   42 1   
    42   39   47 1   
    43   40   41 2   
    44   40   50 1   
    45   42   43 1   
    46   42   48 1   
    47   42   49 1   
    48   43   44 1   
    49   43   45 1   
    50   50   51 1   
    51   50   54 1   
    52   51   52 1   
    53   51   55 1   
    54   51   56 1   
    55   52   53 2   
    56   52   57 1   
    57   57   58 1   
    58   57   65 1   
    59   58   59 1   
    60   58   61 1   
    61   58   66 1   
    62   59   60 2   
    63   59   69 1   
    64   61   62 1   
    65   61   67 1   
    66   61   68 1   
    67   62   63 1   
    68   62   64 1   
    69   69   70 1   
    70   69   73 1   
    71   70   71 1   
    72   70   74 1   
    73   70   75 1   
    74   71   72 2   
    75   71   76 1   
    76   76   77 1   
    77   76   85 1   
    78   77   78 1   
    79   77   80 1   
    80   77   86 1   
    81   78   79 2   
    82   78   93 1   
    83   80   81 1   
    84   80   87 1   
    85   80   88 1   
    86   81   82 1   
    87   81   89 1   
    88   81   90 1   
    89   82   83 1   
    90   82   84 2   
    91   83   91 1   
    92   83   92 1   
    93   93   94 1   
    94   93  100 1   
    95   94   95 1   
    96   94   97 1   
    97   94  101 1   
    98   95   96 2   
    99   95  109 1   
   100   97   98 1   
   101   97   99 1   
   102   97  102 1   
   103   98  103 1   
   104   98  104 1   
   105   98  105 1   
   106   99  106 1   
   107   99  107 1   
   108   99  108 1   
   109  109  110 1   
   110  109  117 1   
   111  110  111 1   
   112  110  113 1   
   113  110  118 1   
   114  111  112 2   
   115  111  123 1   
   116  113  114 1   
   117  113  119 1   
   118  113  120 1   
   119  114  115 1   
   120  114  116 2   
   121  115  121 1   
   122  115  122 1   
   123  123  124 1   
   124  123  135 1   
   125  124  125 1   
   126  124  127 1   
   127  124  136 1   
   128  125  126 2   
   129  125  144 1   
   130  127  128 1   
   131  127  137 1   
   132  127  138 1   
   133  128  129 ar  
   134  128  130 ar  
   135  129  131 ar  
   136  129  139 1   
   137  130  132 ar  
   138  130  140 1   
   139  131  133 ar  
   140  131  141 1   
   141  132  133 ar  
   142  132  142 1   
   143  133  134 1   
   144  134  143 1   
   145  144  145 1   
   146  144  153 1   
   147  145  146 1   
   148  145  148 1   
   149  145  154 1   
   150  146  147 2   
   151  146  159 1   
   152  148  149 1   
   153  148  155 1   
   154  148  156 1   
   155  149  150 1   
   156  149  157 1   
   157  149  158 1   
   158  150  151 1   
   159  150  152 1   
   160  159  160 1   
   161  159  168 1   
   162  160  161 1   
   163  160  163 1   
   164  160  169 1   
   165  161  162 2   
   166  161  174 1   
   167  163  164 1   
   168  163  170 1   
   169  163  171 1   
   170  164  165 1   
   171  164  172 1   
   172  164  173 1   
   173  165  166 1   
   174  165  167 1   
   175  174  175 1   
   176  174  179 1   
   177  175  176 1   
   178  175  177 1   
   179  175  178 1   
   180  181  182 1   
   181  181  183 1   
   182  184  185 1   
   183  184  186 1   
   184  187  188 1   
   185  187  189 1   
   186  190  191 1   
   187  190  192 1   
@<TRIPOS>SUBSTRUCTURE
     1 MOL         1 TEMP              0 ****  ****    0 ROOT
