@<TRIPOS>MOLECULE
MOL
  191   184     1     0     0
SMALL
resp


@<TRIPOS>ATOM
      1 C1         12.1150    5.8380    0.6800 c3        1 MOL     -0.349582
      2 C2         11.4270    4.5560    1.3070 c         1 MOL      0.713502
      3 O1         10.6080    4.7270    2.2250 o         1 MOL     -0.572465
      4 H1         13.1600    5.8750    0.9860 hc        1 MOL      0.083202
      5 H2         12.0570    5.7870   -0.4070 hc        1 MOL      0.083202
      6 H3         11.6030    6.7340    1.0310 hc        1 MOL      0.083202
      7 N1         11.7570    3.3790    0.7210 n         1 MOL     -0.804201
      8 C3         10.9970    2.1260    1.2390 c3        1 MOL      0.464895
      9 C4         10.2190    1.3720    0.1060 c         1 MOL      0.460722
     10 O2         10.4880    1.6560   -1.0500 o         1 MOL     -0.552960
     11 C5         12.0290    1.2410    1.8480 c3        1 MOL     -0.110018
     12 C6         11.3590    0.1590    2.6940 c         1 MOL      0.726990
     13 O3         12.0760   -0.8780    2.8240 o         1 MOL     -0.727631
     14 O4         10.2280    0.3140    3.1940 o         1 MOL     -0.727631
     15 H4         12.4190    3.4120   -0.0410 hn        1 MOL      0.375653
     16 H5         10.2920    2.4170    2.0240 h1        1 MOL     -0.039103
     17 H6         12.6840    1.7490    2.5690 hc        1 MOL      0.004502
     18 H7         12.6230    0.7690    1.0720 hc        1 MOL      0.004502
     19 N2          9.3420    0.4620    0.4460 n         1 MOL     -0.465282
     20 C7          8.3950   -0.2730   -0.4380 c3        1 MOL     -0.107304
     21 C8          7.0840   -0.5160    0.3290 c         1 MOL      0.641259
     22 O5          7.0930   -1.2140    1.3750 o         1 MOL     -0.552599
     23 C9          8.9980   -1.6090   -1.0230 c3        1 MOL     -0.111996
     24 C10         9.4360   -2.6660    0.0590 c3        1 MOL      0.397798
     25 C11         9.9140   -3.9510   -0.6040 c3        1 MOL     -0.188703
     26 C12        10.4450   -4.9630    0.4960 c3        1 MOL      0.095322
     27 N3          9.2840   -5.6630    1.1240 n4        1 MOL     -0.448296
     28 H8          9.2750    0.4070    1.4530 hn        1 MOL      0.286872
     29 H9          8.1900    0.4110   -1.2590 h1        1 MOL      0.104294
     30 H10         9.8250   -1.4670   -1.7230 hc        1 MOL      0.045002
     31 H11         8.2560   -2.0030   -1.7160 hc        1 MOL      0.045002
     32 H12         8.5580   -3.0090    0.6150 hc        1 MOL     -0.065397
     33 H13        10.1840   -2.2770    0.7590 hc        1 MOL     -0.065397
     34 H14        10.8200   -3.8170   -1.1890 hc        1 MOL      0.044511
     35 H15         9.1280   -4.4350   -1.1930 hc        1 MOL      0.044511
     36 H16        10.9400   -4.3820    1.2690 hx        1 MOL      0.091154
     37 H17        11.1810   -5.7150    0.2040 hx        1 MOL      0.091154
     38 H18         8.6350   -5.0920    1.6420 hn        1 MOL      0.328814
     39 H19         8.7320   -6.1590    0.4360 hn        1 MOL      0.328814
     40 H20         9.5590   -6.3460    1.8110 hn        1 MOL      0.328814
     41 N4          5.9830   -0.0060   -0.2040 n         1 MOL     -0.476333
     42 C13         4.7400   -0.2080    0.5100 c3        1 MOL      0.038516
     43 C14         4.3340   -1.6600    0.3190 c         1 MOL      0.394118
     44 O6          4.5450   -2.2280   -0.7560 o         1 MOL     -0.446976
     45 C15         3.7060    0.6470   -0.2320 c3        1 MOL     -0.110406
     46 C16         2.2880    0.6030    0.4090 c         1 MOL      0.717614
     47 O7          1.9210    1.3890    1.3120 o         1 MOL     -0.768599
     48 O8          1.4320   -0.2320    0.0580 o         1 MOL     -0.768599
     49 H21         6.0900    0.5360   -1.0510 hn        1 MOL      0.313404
     50 H22         4.7650    0.1470    1.5430 h1        1 MOL      0.101099
     51 H23         3.7240    0.3440   -1.2870 hc        1 MOL      0.059905
     52 H24         4.0300    1.6840   -0.2230 hc        1 MOL      0.059905
     53 N5          3.7270   -2.4120    1.2840 n         1 MOL     -0.300905
     54 C17         3.3430   -3.8970    1.1720 c3        1 MOL     -0.153727
     55 C18         2.7440   -4.3470   -0.1640 c         1 MOL      0.583947
     56 O9          3.0820   -5.3710   -0.7260 o         1 MOL     -0.556941
     57 H25         3.6030   -2.0780    2.2330 hn        1 MOL      0.239782
     58 H26         2.7190   -4.2530    1.9890 h1        1 MOL      0.097649
     59 H27         4.2770   -4.4540    1.1680 h1        1 MOL      0.097649
     60 N6          1.8130   -3.5430   -0.6770 n         1 MOL     -0.377898
     61 C19         1.0670   -3.8200   -1.9260 c3        1 MOL      0.063066
     62 C20         1.3420   -2.8850   -3.0450 c         1 MOL      0.405759
     63 O10         0.6200   -2.9760   -4.0460 o         1 MOL     -0.515264
     64 C21        -0.4140   -3.7160   -1.5960 c3        1 MOL     -0.561572
     65 C22        -0.8760   -4.6210   -0.5120 c         1 MOL      0.827396
     66 N7         -1.2550   -5.8190   -0.9450 n         1 MOL     -0.825645
     67 O11        -0.9690   -4.2450    0.6230 o         1 MOL     -0.628344
     68 H28         1.7810   -2.6210   -0.2570 hn        1 MOL      0.250538
     69 H29         1.1890   -4.8360   -2.3050 h1        1 MOL      0.124320
     70 H30        -1.0750   -3.8610   -2.4500 hc        1 MOL      0.214565
     71 H31        -0.5330   -2.7100   -1.1810 hc        1 MOL      0.214565
     72 H32        -1.1290   -6.1170   -1.9030 hn        1 MOL      0.382250
     73 H33        -1.2680   -6.5840   -0.2970 hn        1 MOL      0.382250
     74 N8          2.2340   -1.8560   -2.8460 n         1 MOL     -0.031095
     75 C23         2.4170   -0.8470   -3.8980 c3        1 MOL     -0.404862
     76 C24         1.6110    0.4310   -3.8520 c         1 MOL      0.646158
     77 O12         1.5630    1.1690   -4.8410 o         1 MOL     -0.551756
     78 H34         2.8600   -1.8850   -2.0480 hn        1 MOL      0.107946
     79 H35         2.1500   -1.2310   -4.8780 h1        1 MOL      0.167376
     80 H36         3.4590   -0.5400   -3.8750 h1        1 MOL      0.167376
     81 N9          0.8860    0.7200   -2.7590 n         1 MOL     -0.532537
     82 C25        -0.0090    1.9190   -2.6060 c3        1 MOL      0.122138
     83 C26        -1.2300    1.6240   -1.6880 c         1 MOL      0.414836
     84 O13        -1.1570    1.0670   -0.5720 o         1 MOL     -0.598942
     85 C27         0.7240    3.1480   -1.9450 c3        1 MOL     -0.211958
     86 C28        -0.1420    4.4380   -1.8080 ca        1 MOL      0.073648
     87 C29        -0.6620    5.0410   -2.8930 ca        1 MOL     -0.155056
     88 C30        -0.3000    4.9970   -0.5810 ca        1 MOL     -0.155056
     89 C31        -1.2220    6.3390   -2.8500 ca        1 MOL     -0.215404
     90 C32        -0.9000    6.2450   -0.4880 ca        1 MOL     -0.215404
     91 C33        -1.4100    6.9270   -1.5930 ca        1 MOL      0.281686
     92 O14        -2.0630    8.1470   -1.5430 oh        1 MOL     -0.449902
     93 H37         1.0180    0.0600   -2.0040 hn        1 MOL      0.294453
     94 H38        -0.2910    2.2070   -3.6190 h1        1 MOL      0.073064
     95 H39         1.5460    3.3610   -2.6280 hc        1 MOL      0.110184
     96 H40         1.1950    2.7810   -1.0290 hc        1 MOL      0.110184
     97 H41        -0.4540    4.6210   -3.8640 ha        1 MOL      0.130363
     98 H42         0.1450    4.6120    0.3310 ha        1 MOL      0.130363
     99 H43        -1.6240    6.7670   -3.7620 ha        1 MOL      0.143255
    100 H44        -1.0600    6.5780    0.5210 ha        1 MOL      0.143255
    101 H45        -2.2270    8.3660   -0.6250 ho        1 MOL      0.352287
    102 N10        -2.3500    2.2060   -2.1170 n         1 MOL     -0.284742
    103 C34        -3.6610    2.0790   -1.4440 c3        1 MOL     -0.018154
    104 C35        -4.2140    0.6480   -1.5950 c         1 MOL      0.300569
    105 O15        -4.9130    0.1310   -0.7020 o         1 MOL     -0.478217
    106 C36        -4.5600    3.1550   -1.9590 c3        1 MOL      0.066953
    107 C37        -4.1480    4.5950   -1.5610 c3        1 MOL      0.180095
    108 C38        -6.0300    2.9120   -1.8110 c3        1 MOL     -0.428775
    109 C39        -4.0100    4.7890   -0.0210 c3        1 MOL     -0.206288
    110 H46        -2.2830    2.7980   -2.9280 hn        1 MOL      0.234581
    111 H47        -3.5710    2.2560   -0.3690 h1        1 MOL      0.111680
    112 H48        -4.3790    3.1730   -3.0310 hc        1 MOL     -0.004130
    113 H49        -4.8960    5.2820   -1.9400 hc        1 MOL     -0.026649
    114 H50        -3.2030    4.8710   -2.0250 hc        1 MOL     -0.026649
    115 H51        -6.3340    2.8350   -0.7660 hc        1 MOL      0.128984
    116 H52        -6.5720    3.7820   -2.1800 hc        1 MOL      0.128984
    117 H53        -6.4380    2.1670   -2.4950 hc        1 MOL      0.128984
    118 H54        -4.9750    4.4820    0.3830 hc        1 MOL      0.044546
    119 H55        -3.1120    4.3070    0.3720 hc        1 MOL      0.044546
    120 H56        -3.8880    5.8520    0.1820 hc        1 MOL      0.044546
    121 N11        -3.7810   -0.1320   -2.6110 n         1 MOL      0.014427
    122 C40        -3.7370   -1.5760   -2.7170 c3        1 MOL     -0.139917
    123 C41        -5.1770   -2.1570   -2.9250 c         1 MOL      0.486073
    124 O16        -5.3710   -3.3540   -2.7630 o         1 MOL     -0.487525
    125 C42        -2.9400   -2.0510   -3.8810 c3        1 MOL      0.140073
    126 O17        -1.6330   -1.4590   -3.8110 oh        1 MOL     -0.554865
    127 H57        -3.3170    0.4250   -3.3140 hn        1 MOL      0.153442
    128 H58        -3.2510   -1.9990   -1.8340 h1        1 MOL      0.093277
    129 H59        -3.4990   -1.6830   -4.7460 h1        1 MOL      0.022369
    130 H60        -2.8890   -3.1370   -3.8140 h1        1 MOL      0.022369
    131 H61        -1.0290   -2.1130   -4.1760 ho        1 MOL      0.397405
    132 N12        -6.1650   -1.2660   -3.1610 n         1 MOL     -0.426077
    133 C43        -7.6060   -1.3900   -3.1890 c3        1 MOL      0.217734
    134 C44        -8.2220   -1.7880   -1.9070 c         1 MOL      0.620040
    135 O18        -9.3350   -2.3040   -1.8860 o         1 MOL     -0.586418
    136 C45        -8.1570   -2.1090   -4.4030 c3        1 MOL     -0.208087
    137 H62        -5.8570   -0.3190   -3.3230 hn        1 MOL      0.191821
    138 H63        -7.9790   -0.3790   -3.3490 h1        1 MOL      0.048283
    139 H64        -7.9460   -1.5170   -5.2980 hc        1 MOL      0.060597
    140 H65        -7.8350   -3.1360   -4.5430 hc        1 MOL      0.060597
    141 H66        -9.2430   -2.0340   -4.4570 hc        1 MOL      0.060597
    142 N13        -7.5450   -1.5900   -0.7880 n         1 MOL     -0.611918
    143 C46        -7.9250   -1.9270    0.5400 c3        1 MOL      0.404051
    144 C47        -8.5090   -0.7670    1.3570 c         1 MOL      0.387418
    145 O19        -7.9630    0.3310    1.3330 o         1 MOL     -0.436505
    146 C48        -6.6740   -2.5820    1.1900 c3        1 MOL     -0.444998
    147 H67        -6.5660   -1.3550   -0.8960 hn        1 MOL      0.231486
    148 H68        -8.7160   -2.6820    0.4690 h1        1 MOL      0.000339
    149 H69        -6.8770   -2.9570    2.1900 hc        1 MOL      0.124679
    150 H70        -6.3920   -3.4490    0.5930 hc        1 MOL      0.124679
    151 H71        -5.9140   -1.8120    1.1060 hc        1 MOL      0.124679
    152 N14        -9.6390   -0.9950    1.9980 n         1 MOL     -0.467652
    153 C49       -10.2000   -0.1950    3.0530 c3        1 MOL     -0.053668
    154 C50       -10.8200    1.1490    2.6360 c         1 MOL      0.468995
    155 O20       -10.9510    2.1870    3.2990 o         1 MOL     -0.502991
    156 C51        -9.1390   -0.0190    4.1380 c3        1 MOL      0.086392
    157 C52        -8.8970   -1.3130    4.9070 c3        1 MOL     -0.108801
    158 C53        -7.8690   -1.2890    6.0060 c         1 MOL      0.636748
    159 O21        -6.7090   -0.8410    5.7870 o         1 MOL     -0.688543
    160 O22        -8.2920   -1.6120    7.1010 o         1 MOL     -0.688543
    161 H72        -9.9530   -1.9520    1.9690 hn        1 MOL      0.300502
    162 H73       -11.0190   -0.7930    3.4510 h1        1 MOL      0.081769
    163 H74        -9.4910    0.5880    4.9670 hc        1 MOL      0.018853
    164 H75        -8.2180    0.4030    3.7370 hc        1 MOL      0.018853
    165 H76        -8.7760   -2.1850    4.2620 hc        1 MOL      0.002965
    166 H77        -9.8570   -1.5390    5.3550 hc        1 MOL      0.002965
    167 N15       -11.1930    1.1830    1.3370 n         1 MOL     -0.352162
    168 C54       -11.4310    2.3610    0.5110 c3        1 MOL     -0.042129
    169 H78       -10.4800    2.7370    0.1330 h1        1 MOL      0.059849
    170 H79       -12.0750    2.0940   -0.3260 h1        1 MOL      0.059849
    171 H80       -11.9140    3.1340    1.1100 h1        1 MOL      0.059849
    172 H81       -10.9950    0.3440    0.8170 hn        1 MOL      0.244431
    173 Ca1        -0.5390    0.5680    2.0060 Ca        1 MOL      1.863730
    174 O23         0.6670   -1.9450    2.4320 oh        1 MOL     -0.860906
    175 H82         1.2250   -2.3290    3.0990 ho        1 MOL      0.427031
    176 H83         0.1140   -2.6700    2.1240 ho        1 MOL      0.427031
    177 O24        -1.9930   -0.3150    4.1640 oh        1 MOL     -0.860906
    178 H84        -1.6530   -0.3830    5.0480 ho        1 MOL      0.427031
    179 H85        -2.9360   -0.3730    4.2560 ho        1 MOL      0.427031
    180 O25         1.2780    0.6150    3.9340 oh        1 MOL     -0.860906
    181 H86         2.0450    0.0510    4.0180 ho        1 MOL      0.427031
    182 H87         1.5590    1.4530    4.2880 ho        1 MOL      0.427031
    183 O26         0.1680    3.2570    2.6350 oh        1 MOL     -0.860906
    184 H88         1.0990    3.3440    2.8340 ho        1 MOL      0.427031
    185 H89        -0.2460    3.9690    3.1270 ho        1 MOL      0.427031
    186 O27        -1.8760   -1.6700    1.2960 oh        1 MOL     -0.860906
    187 H90        -2.4110   -2.1980    1.8900 ho        1 MOL      0.427031
    188 H91        -1.8350   -2.1880    0.4900 ho        1 MOL      0.427031
    189 O28        -2.8370    2.0540    2.7460 oh        1 MOL     -0.860906
    190 H92        -2.9570    2.8200    3.2990 ho        1 MOL      0.427031
    191 H93        -3.7020    1.8640    2.3980 ho        1 MOL      0.427031
@<TRIPOS>BOND
     1    1    2 1   
     2    1    4 1   
     3    1    5 1   
     4    1    6 1   
     5    2    3 2   
     6    2    7 1   
     7    7    8 1   
     8    7   15 1   
     9    8    9 1   
    10    8   11 1   
    11    8   16 1   
    12    9   10 2   
    13    9   19 1   
    14   11   12 1   
    15   11   17 1   
    16   11   18 1   
    17   12   13 1   
    18   12   14 1   
    19   19   20 1   
    20   19   28 1   
    21   20   21 1   
    22   20   23 1   
    23   20   29 1   
    24   21   22 2   
    25   21   41 1   
    26   23   24 1   
    27   23   30 1   
    28   23   31 1   
    29   24   25 1   
    30   24   32 1   
    31   24   33 1   
    32   25   26 1   
    33   25   34 1   
    34   25   35 1   
    35   26   27 1   
    36   26   36 1   
    37   26   37 1   
    38   27   38 1   
    39   27   39 1   
    40   27   40 1   
    41   41   42 1   
    42   41   49 1   
    43   42   43 1   
    44   42   45 1   
    45   42   50 1   
    46   43   44 2   
    47   43   53 1   
    48   45   46 1   
    49   45   51 1   
    50   45   52 1   
    51   46   47 1   
    52   46   48 1   
    53   53   54 1   
    54   53   57 1   
    55   54   55 1   
    56   54   58 1   
    57   54   59 1   
    58   55   56 2   
    59   55   60 1   
    60   60   61 1   
    61   60   68 1   
    62   61   62 1   
    63   61   64 1   
    64   61   69 1   
    65   62   63 2   
    66   62   74 1   
    67   64   65 1   
    68   64   70 1   
    69   64   71 1   
    70   65   66 1   
    71   65   67 2   
    72   66   72 1   
    73   66   73 1   
    74   74   75 1   
    75   74   78 1   
    76   75   76 1   
    77   75   79 1   
    78   75   80 1   
    79   76   77 2   
    80   76   81 1   
    81   81   82 1   
    82   81   93 1   
    83   82   83 1   
    84   82   85 1   
    85   82   94 1   
    86   83   84 2   
    87   83  102 1   
    88   85   86 1   
    89   85   95 1   
    90   85   96 1   
    91   86   87 ar  
    92   86   88 ar  
    93   87   89 ar  
    94   87   97 1   
    95   88   90 ar  
    96   88   98 1   
    97   89   91 ar  
    98   89   99 1   
    99   90   91 ar  
   100   90  100 1   
   101   91   92 1   
   102   92  101 1   
   103  102  103 1   
   104  102  110 1   
   105  103  104 1   
   106  103  106 1   
   107  103  111 1   
   108  104  105 2   
   109  104  121 1   
   110  106  107 1   
   111  106  108 1   
   112  106  112 1   
   113  107  109 1   
   114  107  113 1   
   115  107  114 1   
   116  108  115 1   
   117  108  116 1   
   118  108  117 1   
   119  109  118 1   
   120  109  119 1   
   121  109  120 1   
   122  121  122 1   
   123  121  127 1   
   124  122  123 1   
   125  122  125 1   
   126  122  128 1   
   127  123  124 2   
   128  123  132 1   
   129  125  126 1   
   130  125  129 1   
   131  125  130 1   
   132  126  131 1   
   133  132  133 1   
   134  132  137 1   
   135  133  134 1   
   136  133  136 1   
   137  133  138 1   
   138  134  135 2   
   139  134  142 1   
   140  136  139 1   
   141  136  140 1   
   142  136  141 1   
   143  142  143 1   
   144  142  147 1   
   145  143  144 1   
   146  143  146 1   
   147  143  148 1   
   148  144  145 2   
   149  144  152 1   
   150  146  149 1   
   151  146  150 1   
   152  146  151 1   
   153  152  153 1   
   154  152  161 1   
   155  153  154 1   
   156  153  156 1   
   157  153  162 1   
   158  154  155 2   
   159  154  167 1   
   160  156  157 1   
   161  156  163 1   
   162  156  164 1   
   163  157  158 1   
   164  157  165 1   
   165  157  166 1   
   166  158  159 1   
   167  158  160 1   
   168  167  168 1   
   169  167  172 1   
   170  168  169 1   
   171  168  170 1   
   172  168  171 1   
   173  174  175 1   
   174  174  176 1   
   175  177  178 1   
   176  177  179 1   
   177  180  181 1   
   178  180  182 1   
   179  183  184 1   
   180  183  185 1   
   181  186  187 1   
   182  186  188 1   
   183  189  190 1   
   184  189  191 1   
@<TRIPOS>SUBSTRUCTURE
     1 MOL         1 TEMP              0 ****  ****    0 ROOT
