@<TRIPOS>MOLECULE
MOL
  182   178     1     0     0
SMALL
resp


@<TRIPOS>ATOM
      1 C1          0.4960   -4.7380    5.4680 c3        1 MOL     -0.424281
      2 C2          0.6200   -4.4160    3.9980 c         1 MOL      0.761955
      3 O1         -0.2810   -4.6450    3.1390 o         1 MOL     -0.668446
      4 H1          1.4530   -4.5660    5.9590 hc        1 MOL      0.123610
      5 H2         -0.2640   -4.0980    5.9180 hc        1 MOL      0.123610
      6 H3          0.2090   -5.7820    5.5880 hc        1 MOL      0.123610
      7 N1          1.7590   -3.8520    3.6310 n         1 MOL     -0.492396
      8 C3          2.1060   -3.2990    2.3810 c3        1 MOL      0.005069
      9 C4          2.5200   -4.4070    1.4120 c         1 MOL      0.505735
     10 O2          3.3420   -5.2430    1.6930 o         1 MOL     -0.553397
     11 C5          3.2530   -2.2940    2.5570 c3        1 MOL     -0.410390
     12 C6          3.4970   -1.4080    1.3130 c         1 MOL      0.815439
     13 O3          4.0040   -0.2610    1.4050 o         1 MOL     -0.788302
     14 O4          3.2990   -1.8060    0.1890 o         1 MOL     -0.788302
     15 H4          2.4820   -3.7770    4.3360 hn        1 MOL      0.310296
     16 H5          1.2660   -2.7470    1.9530 h1        1 MOL     -0.000907
     17 H6          4.1340   -2.8780    2.7760 hc        1 MOL      0.138077
     18 H7          3.0510   -1.6010    3.3710 hc        1 MOL      0.138077
     19 N2          1.9230   -4.4640    0.2430 n         1 MOL     -0.208007
     20 C7          2.1750   -5.5370   -0.6810 c3        1 MOL     -0.031698
     21 C8          3.3040   -5.2230   -1.7390 c         1 MOL      0.494079
     22 O5          3.6430   -6.1830   -2.4370 o         1 MOL     -0.548442
     23 C9          0.8110   -5.8800   -1.3860 c3        1 MOL      0.122268
     24 C10        -0.3190   -6.2890   -0.3570 c3        1 MOL     -0.347955
     25 C11        -1.6460   -6.4730   -1.1110 c3        1 MOL      0.250949
     26 C12        -2.7410   -6.9590   -0.2090 c3        1 MOL      0.020310
     27 N3         -3.9700   -6.9400   -1.0630 n4        1 MOL     -0.347810
     28 H8          1.2240   -3.7850   -0.0330 hn        1 MOL      0.422178
     29 H9          2.4950   -6.4540   -0.1850 h1        1 MOL      0.108577
     30 H10         1.0600   -6.6860   -2.0670 hc        1 MOL     -0.025594
     31 H11         0.4590   -4.9810   -1.8880 hc        1 MOL     -0.025594
     32 H12        -0.4460   -5.5860    0.4530 hc        1 MOL      0.094138
     33 H13        -0.0370   -7.2900   -0.0500 hc        1 MOL      0.094138
     34 H14        -1.5580   -7.1500   -1.9600 hc        1 MOL     -0.033147
     35 H15        -1.9090   -5.4730   -1.4580 hc        1 MOL     -0.033147
     36 H16        -2.9150   -6.2910    0.6240 hx        1 MOL      0.087823
     37 H17        -2.5180   -7.9590    0.1700 hx        1 MOL      0.087823
     38 H18        -3.8250   -7.4600   -1.9210 hn        1 MOL      0.280846
     39 H19        -4.7610   -7.3040   -0.5440 hn        1 MOL      0.280846
     40 H20        -4.3710   -6.0360   -1.2600 hn        1 MOL      0.280846
     41 N4          3.8790   -3.9860   -1.7650 n         1 MOL     -0.359537
     42 C13         5.1170   -3.6640   -2.5270 c3        1 MOL      0.329156
     43 C14         6.2860   -3.2940   -1.5610 c         1 MOL      0.283065
     44 O6          7.4010   -3.6220   -1.8050 o         1 MOL     -0.507227
     45 C15         4.8590   -2.5940   -3.5100 c3        1 MOL     -0.412926
     46 C16         4.1890   -1.4010   -2.8930 c         1 MOL      0.985994
     47 O7          4.8490   -0.4440   -2.3270 o         1 MOL     -0.854738
     48 O8          2.9440   -1.3530   -2.8230 o         1 MOL     -0.854738
     49 H21         3.5000   -3.3350   -1.1030 hn        1 MOL      0.077055
     50 H22         5.4520   -4.5450   -3.0670 h1        1 MOL      0.049702
     51 H23         4.2660   -2.9050   -4.3670 hc        1 MOL      0.109063
     52 H24         5.8440   -2.3200   -3.8970 hc        1 MOL      0.109063
     53 N5          6.0320   -2.6670   -0.4750 n         1 MOL     -0.008468
     54 C17         6.9510   -2.3150    0.6160 c3        1 MOL     -0.229190
     55 C18         7.4090   -0.8290    0.4590 c         1 MOL      0.645736
     56 O9          8.4060   -0.5180    1.1130 o         1 MOL     -0.605836
     57 H25         5.1600   -2.1680   -0.4690 hn        1 MOL      0.083798
     58 H26         7.7830   -3.0170    0.5940 h1        1 MOL      0.124374
     59 H27         6.3590   -2.3500    1.5280 h1        1 MOL      0.124374
     60 N6          6.8770   -0.0400   -0.4170 n         1 MOL     -0.247419
     61 C19         7.2690    1.3810   -0.5270 c3        1 MOL      0.090091
     62 C20         6.0820    2.3400   -0.5610 c         1 MOL      0.445592
     63 O10         4.9560    1.8770   -0.7130 o         1 MOL     -0.363811
     64 C21         8.0470    1.6210   -1.8530 c3        1 MOL     -0.347397
     65 C22         9.2840    0.7730   -1.9880 c         1 MOL      0.632868
     66 N7         10.3880    1.2110   -1.4150 n         1 MOL     -0.757632
     67 O11         9.3410   -0.2860   -2.5750 o         1 MOL     -0.526953
     68 H28         6.1980   -0.3930   -1.0780 hn        1 MOL      0.235133
     69 H29         7.7390    1.7410    0.3860 h1        1 MOL      0.034919
     70 H30         8.3570    2.6650   -1.9480 hc        1 MOL      0.089588
     71 H31         7.2690    1.4110   -2.5890 hc        1 MOL      0.089588
     72 H32        10.4440    2.1370   -1.0070 hn        1 MOL      0.364413
     73 H33        11.0860    0.4940   -1.5300 hn        1 MOL      0.364413
     74 N8          6.2730    3.6030   -0.3790 n         1 MOL     -0.340503
     75 C23         5.2600    4.6060   -0.6150 c3        1 MOL     -0.211911
     76 C24         4.2830    4.7150    0.5300 c         1 MOL      0.657195
     77 O12         4.6070    4.3450    1.6560 o         1 MOL     -0.515741
     78 H34         7.1350    4.0010   -0.0090 hn        1 MOL      0.313903
     79 H35         4.6650    4.2520   -1.4570 h1        1 MOL      0.088661
     80 H36         5.7060    5.5840   -0.7890 h1        1 MOL      0.088661
     81 N9          3.0020    4.9020    0.1740 n         1 MOL     -0.715215
     82 C25         1.8270    4.6500    1.0560 c3        1 MOL      0.290070
     83 C26         1.5870    3.1950    1.2620 c         1 MOL      0.732349
     84 O13         2.3100    2.3530    0.6850 o         1 MOL     -0.606835
     85 C27         0.5370    5.3990    0.5730 c3        1 MOL     -0.255766
     86 C28         0.8480    6.8930    0.2860 ca        1 MOL      0.187212
     87 C29         1.0460    7.8470    1.3180 ca        1 MOL     -0.232514
     88 C30         0.7980    7.3280   -1.0380 ca        1 MOL     -0.232514
     89 C31         1.1810    9.2140    0.9660 ca        1 MOL     -0.230947
     90 C32         1.0410    8.6370   -1.4630 ca        1 MOL     -0.230947
     91 C33         1.2940    9.5480   -0.3700 ca        1 MOL      0.348290
     92 O14         1.7210   10.8350   -0.5550 oh        1 MOL     -0.500972
     93 H37         2.8350    4.9840   -0.8220 hn        1 MOL      0.337344
     94 H38         2.1230    5.0790    2.0130 h1        1 MOL      0.031756
     95 H39        -0.2730    5.3420    1.3100 hc        1 MOL      0.066681
     96 H40         0.2900    4.8210   -0.3190 hc        1 MOL      0.066681
     97 H41         1.0270    7.7010    2.3890 ha        1 MOL      0.148587
     98 H42         0.5200    6.6240   -1.8060 ha        1 MOL      0.148587
     99 H43         1.3670    9.9460    1.7440 ha        1 MOL      0.166900
    100 H44         1.0960    8.9040   -2.5040 ha        1 MOL      0.166900
    101 H45         2.2320   11.1430    0.2040 ho        1 MOL      0.361444
    102 N10         0.6640    2.8950    2.1310 n         1 MOL     -0.792358
    103 C34         0.1800    1.5960    2.5880 c3        1 MOL      0.261313
    104 C35        -0.0960    0.5940    1.3980 c         1 MOL      0.324269
    105 O15         0.8010    0.0760    0.7200 o         1 MOL     -0.436721
    106 C36         1.0970    0.9350    3.6190 c3        1 MOL      0.280253
    107 C37         0.4890   -0.2770    4.3610 c3        1 MOL     -0.169922
    108 C38         1.6310    1.9190    4.6720 c3        1 MOL     -0.403435
    109 C39        -0.6980    0.1250    5.2770 c3        1 MOL     -0.214509
    110 H46         0.2760    3.6510    2.6750 hn        1 MOL      0.349797
    111 H47        -0.8100    1.6890    3.0250 h1        1 MOL      0.020970
    112 H48         2.0220    0.5810    3.1650 hc        1 MOL      0.051922
    113 H49         1.2460   -0.7330    4.9980 hc        1 MOL      0.072353
    114 H50         0.1260   -1.0830    3.7240 hc        1 MOL      0.072353
    115 H51         2.1480    2.7220    4.1360 hc        1 MOL      0.101273
    116 H52         0.8540    2.4250    5.2500 hc        1 MOL      0.101273
    117 H53         2.4670    1.4340    5.1860 hc        1 MOL      0.101273
    118 H54        -0.9430   -0.8070    5.7880 hc        1 MOL      0.054430
    119 H55        -0.4950    0.9140    5.9970 hc        1 MOL      0.054430
    120 H56        -1.5110    0.4210    4.6130 hc        1 MOL      0.054430
    121 N11        -1.3460    0.1070    1.3000 n         1 MOL     -0.434963
    122 C40        -1.7430   -0.9260    0.3850 c3        1 MOL      0.204754
    123 C41        -3.1990   -0.8910   -0.0310 c         1 MOL      0.600602
    124 O16        -3.6670   -1.8320   -0.6870 o         1 MOL     -0.579571
    125 C42        -1.3690   -2.3230    0.8970 c3        1 MOL      0.114670
    126 O17        -1.6830   -2.4610    2.3060 oh        1 MOL     -0.663253
    127 H57        -1.9540    0.3940    2.0600 hn        1 MOL      0.320592
    128 H58        -1.1470   -0.7900   -0.5150 h1        1 MOL     -0.040615
    129 H59        -0.2980   -2.4600    0.7640 h1        1 MOL      0.015599
    130 H60        -1.8090   -3.1410    0.3310 h1        1 MOL      0.015599
    131 H61        -1.3410   -3.2680    2.6840 ho        1 MOL      0.447528
    132 N12        -3.9510    0.1530    0.3360 n         1 MOL     -0.532443
    133 C43        -5.4160    0.2270   -0.0180 c3        1 MOL      0.151885
    134 C44        -5.5940    1.0490   -1.2950 c         1 MOL      0.610611
    135 O18        -4.7700    1.8370   -1.7010 o         1 MOL     -0.556189
    136 C45        -6.0920    0.9170    1.1610 c3        1 MOL     -0.240061
    137 H62        -3.5390    0.8630    0.9330 hn        1 MOL      0.242104
    138 H63        -5.9230   -0.7220   -0.1140 h1        1 MOL      0.096385
    139 H64        -5.7270    1.9440    1.2830 hc        1 MOL      0.083818
    140 H65        -7.1850    0.9770    1.0400 hc        1 MOL      0.083818
    141 H66        -6.0280    0.4230    2.1310 hc        1 MOL      0.083818
    142 N13        -6.7620    0.9650   -2.0290 n         1 MOL     -0.652481
    143 C46        -7.9510    0.1510   -1.7710 c3        1 MOL      0.392980
    144 C47        -9.1840    0.8800   -2.3150 c         1 MOL      0.353172
    145 O19        -9.0740    1.5690   -3.3650 o         1 MOL     -0.542041
    146 C48        -7.8160   -1.1630   -2.5260 c3        1 MOL     -0.209809
    147 H67        -6.8670    1.7000   -2.7210 hn        1 MOL      0.338155
    148 H68        -8.0740    0.0410   -0.6890 h1        1 MOL     -0.065807
    149 H69        -8.6460   -1.8480   -2.3560 hc        1 MOL      0.060021
    150 H70        -7.7390   -0.9460   -3.6000 hc        1 MOL      0.060021
    151 H71        -6.8910   -1.6620   -2.2210 hc        1 MOL      0.060021
    152 N14       -10.3250    0.8620   -1.6850 n         1 MOL     -0.295314
    153 C49       -10.7070    0.3370   -0.3810 c3        1 MOL     -0.207073
    154 C50       -10.0600    1.1560    0.7840 c         1 MOL      0.486877
    155 O20        -9.5960    0.5940    1.7990 o         1 MOL     -0.531481
    156 C51       -12.2380    0.2800   -0.1840 c3        1 MOL      0.108087
    157 C52       -12.9170   -0.6280   -1.2240 c3        1 MOL     -0.207649
    158 C53       -14.3860   -0.7630   -0.8310 c         1 MOL      0.710616
    159 O21       -15.1660    0.1860   -1.0590 o         1 MOL     -0.678905
    160 O22       -14.7470   -1.8450   -0.3350 o         1 MOL     -0.678905
    161 H72       -11.0300    1.4540   -2.0920 hn        1 MOL      0.288994
    162 H73       -10.3190   -0.6790   -0.3680 h1        1 MOL      0.123312
    163 H74       -12.6650    1.2720   -0.0810 hc        1 MOL      0.020089
    164 H75       -12.3730   -0.1770    0.7960 hc        1 MOL      0.020089
    165 H76       -12.4110   -1.5830   -1.2410 hc        1 MOL      0.027713
    166 H77       -12.8710   -0.1620   -2.2080 hc        1 MOL      0.027713
    167 N15        -9.8500    2.4040    0.4500 n         1 MOL     -0.265518
    168 C54        -9.0910    3.3700    1.2930 c3        1 MOL     -0.249954
    169 H78        -8.0570    3.0380    1.3840 h1        1 MOL      0.114554
    170 H79        -9.1150    4.3560    0.8290 h1        1 MOL      0.114554
    171 H80        -9.5440    3.4230    2.2830 h1        1 MOL      0.114554
    172 H81       -10.2660    2.7490   -0.4010 hn        1 MOL      0.265941
    173 Ca1         2.8290    0.4680   -1.0000 Ca        1 MOL      1.749000
    174 O23         0.8520   -2.0280   -1.6670 oh        1 MOL     -0.857696
    175 H82         0.1890   -1.5460   -2.1750 ho        1 MOL      0.425254
    176 H83         1.6500   -1.9720   -2.1960 ho        1 MOL      0.425254
    177 O24         0.6630    1.8380   -1.9660 oh        1 MOL     -0.857696
    178 H84        -0.2310    1.5180   -1.8050 ho        1 MOL      0.425254
    179 H85         0.5750    2.4540   -2.6870 ho        1 MOL      0.425254
    180 O25         3.3610    2.3140   -3.0850 oh        1 MOL     -0.857696
    181 H86         4.0400    2.0460   -3.7100 ho        1 MOL      0.425254
    182 H87         3.3020    3.2560   -3.1830 ho        1 MOL      0.425254
@<TRIPOS>BOND
     1    1    2 1   
     2    1    4 1   
     3    1    5 1   
     4    1    6 1   
     5    2    3 2   
     6    2    7 1   
     7    7    8 1   
     8    7   15 1   
     9    8    9 1   
    10    8   11 1   
    11    8   16 1   
    12    9   10 2   
    13    9   19 1   
    14   11   12 1   
    15   11   17 1   
    16   11   18 1   
    17   12   13 1   
    18   12   14 1   
    19   19   20 1   
    20   19   28 1   
    21   20   21 1   
    22   20   23 1   
    23   20   29 1   
    24   21   22 2   
    25   21   41 1   
    26   23   24 1   
    27   23   30 1   
    28   23   31 1   
    29   24   25 1   
    30   24   32 1   
    31   24   33 1   
    32   25   26 1   
    33   25   34 1   
    34   25   35 1   
    35   26   27 1   
    36   26   36 1   
    37   26   37 1   
    38   27   38 1   
    39   27   39 1   
    40   27   40 1   
    41   41   42 1   
    42   41   49 1   
    43   42   43 1   
    44   42   45 1   
    45   42   50 1   
    46   43   44 2   
    47   43   53 1   
    48   45   46 1   
    49   45   51 1   
    50   45   52 1   
    51   46   47 1   
    52   46   48 1   
    53   53   54 1   
    54   53   57 1   
    55   54   55 1   
    56   54   58 1   
    57   54   59 1   
    58   55   56 2   
    59   55   60 1   
    60   60   61 1   
    61   60   68 1   
    62   61   62 1   
    63   61   64 1   
    64   61   69 1   
    65   62   63 2   
    66   62   74 1   
    67   64   65 1   
    68   64   70 1   
    69   64   71 1   
    70   65   66 1   
    71   65   67 2   
    72   66   72 1   
    73   66   73 1   
    74   74   75 1   
    75   74   78 1   
    76   75   76 1   
    77   75   79 1   
    78   75   80 1   
    79   76   77 2   
    80   76   81 1   
    81   81   82 1   
    82   81   93 1   
    83   82   83 1   
    84   82   85 1   
    85   82   94 1   
    86   83   84 2   
    87   83  102 1   
    88   85   86 1   
    89   85   95 1   
    90   85   96 1   
    91   86   87 ar  
    92   86   88 ar  
    93   87   89 ar  
    94   87   97 1   
    95   88   90 ar  
    96   88   98 1   
    97   89   91 ar  
    98   89   99 1   
    99   90   91 ar  
   100   90  100 1   
   101   91   92 1   
   102   92  101 1   
   103  102  103 1   
   104  102  110 1   
   105  103  104 1   
   106  103  106 1   
   107  103  111 1   
   108  104  105 2   
   109  104  121 1   
   110  106  107 1   
   111  106  108 1   
   112  106  112 1   
   113  107  109 1   
   114  107  113 1   
   115  107  114 1   
   116  108  115 1   
   117  108  116 1   
   118  108  117 1   
   119  109  118 1   
   120  109  119 1   
   121  109  120 1   
   122  121  122 1   
   123  121  127 1   
   124  122  123 1   
   125  122  125 1   
   126  122  128 1   
   127  123  124 2   
   128  123  132 1   
   129  125  126 1   
   130  125  129 1   
   131  125  130 1   
   132  126  131 1   
   133  132  133 1   
   134  132  137 1   
   135  133  134 1   
   136  133  136 1   
   137  133  138 1   
   138  134  135 2   
   139  134  142 1   
   140  136  139 1   
   141  136  140 1   
   142  136  141 1   
   143  142  143 1   
   144  142  147 1   
   145  143  144 1   
   146  143  146 1   
   147  143  148 1   
   148  144  145 2   
   149  144  152 1   
   150  146  149 1   
   151  146  150 1   
   152  146  151 1   
   153  152  153 1   
   154  152  161 1   
   155  153  154 1   
   156  153  156 1   
   157  153  162 1   
   158  154  155 2   
   159  154  167 1   
   160  156  157 1   
   161  156  163 1   
   162  156  164 1   
   163  157  158 1   
   164  157  165 1   
   165  157  166 1   
   166  158  159 1   
   167  158  160 1   
   168  167  168 1   
   169  167  172 1   
   170  168  169 1   
   171  168  170 1   
   172  168  171 1   
   173  174  175 1   
   174  174  176 1   
   175  177  178 1   
   176  177  179 1   
   177  180  181 1   
   178  180  182 1   
@<TRIPOS>SUBSTRUCTURE
     1 MOL         1 TEMP              0 ****  ****    0 ROOT
