@<TRIPOS>MOLECULE
MOL
  179   176     1     0     0
SMALL
resp


@<TRIPOS>ATOM
      1 C1          1.0940   -4.1320    6.0710 c3        1 MOL     -0.411655
      2 C2          1.2330   -3.7900    4.5590 c         1 MOL      0.785907
      3 O1          0.3900   -4.1330    3.7510 o         1 MOL     -0.623742
      4 H1          0.8550   -5.1890    6.1840 hc        1 MOL      0.114963
      5 H2          2.0330   -3.9160    6.5810 hc        1 MOL      0.114963
      6 H3          0.2970   -3.5310    6.5080 hc        1 MOL      0.114963
      7 N1          2.4200   -3.3050    4.1640 n         1 MOL     -0.546858
      8 C3          2.7750   -3.1450    2.7840 c3        1 MOL     -0.155773
      9 C4          3.1540   -4.3610    2.0400 c         1 MOL      0.718552
     10 O2          4.0090   -5.1730    2.4800 o         1 MOL     -0.564422
     11 C5          3.7540   -2.0190    2.6650 c3        1 MOL      0.070987
     12 C6          3.6270   -1.1540    1.3980 c         1 MOL      0.429614
     13 O3          4.1720   -0.0140    1.4620 o         1 MOL     -0.696390
     14 O4          3.0940   -1.5150    0.3260 o         1 MOL     -0.696390
     15 H4          3.0710   -2.9780    4.8580 hn        1 MOL      0.301533
     16 H5          1.8280   -2.7970    2.3690 h1        1 MOL      0.108762
     17 H6          4.8080   -2.2890    2.7080 hc        1 MOL      0.050633
     18 H7          3.6110   -1.2800    3.4550 hc        1 MOL      0.050633
     19 N2          2.5800   -4.4430    0.8320 n         1 MOL     -0.413633
     20 C7          2.7950   -5.5650   -0.1160 c3        1 MOL     -0.143852
     21 C8          3.9100   -5.2770   -1.0880 c         1 MOL      0.554828
     22 O5          4.2640   -6.1150   -1.8630 o         1 MOL     -0.527164
     23 C9          1.4640   -5.8850   -0.8570 c3        1 MOL      0.035239
     24 C10         1.0450   -4.6590   -1.6980 c3        1 MOL      0.011130
     25 C11        -0.3580   -4.9500   -2.2510 c3        1 MOL      0.008655
     26 C12        -0.8500   -3.6320   -2.8790 c3        1 MOL      0.011306
     27 N3         -2.3130   -3.5560   -2.9830 n4        1 MOL     -0.318790
     28 H8          2.0010   -3.7130    0.4500 hn        1 MOL      0.204989
     29 H9          3.1490   -6.4920    0.3470 h1        1 MOL      0.142142
     30 H10         0.6730   -6.2520   -0.2000 hc        1 MOL      0.019455
     31 H11         1.5910   -6.6650   -1.6010 hc        1 MOL      0.019455
     32 H12         1.7630   -4.4520   -2.4890 hc        1 MOL      0.065846
     33 H13         0.9320   -3.8170   -1.0210 hc        1 MOL      0.065846
     34 H14        -1.0210   -5.4330   -1.5280 hc        1 MOL      0.025914
     35 H15        -0.2550   -5.6810   -3.0580 hc        1 MOL      0.025914
     36 H16        -0.4680   -3.6120   -3.8950 hx        1 MOL      0.040871
     37 H17        -0.4450   -2.7750   -2.3360 hx        1 MOL      0.040871
     38 H18        -2.7010   -3.3860   -2.0700 hn        1 MOL      0.308696
     39 H19        -2.5170   -2.8520   -3.6750 hn        1 MOL      0.308696
     40 H20        -2.6890   -4.4310   -3.3260 hn        1 MOL      0.308696
     41 N4          4.4160   -3.9960   -1.1180 n         1 MOL     -0.240775
     42 C13         5.4870   -3.5200   -1.9550 c3        1 MOL      0.026480
     43 C14         6.6930   -2.7840   -1.2220 c         1 MOL      0.366347
     44 O6          7.7690   -2.6870   -1.7740 o         1 MOL     -0.508602
     45 C15         5.0070   -2.7160   -3.1290 c3        1 MOL     -0.197851
     46 C16         4.2260   -1.4710   -2.7810 c         1 MOL      0.826496
     47 O7          2.9850   -1.5300   -2.6710 o         1 MOL     -0.817462
     48 O8          4.8460   -0.4490   -2.4970 o         1 MOL     -0.817462
     49 H21         3.8460   -3.2840   -0.6780 hn        1 MOL      0.035978
     50 H22         5.9730   -4.4070   -2.3540 h1        1 MOL      0.099897
     51 H23         4.3770   -3.3740   -3.7270 hc        1 MOL      0.065354
     52 H24         5.8330   -2.3460   -3.7270 hc        1 MOL      0.065354
     53 N5          6.3990   -2.2100   -0.0890 n         1 MOL      0.003419
     54 C17         7.2390   -1.3440    0.7410 c3        1 MOL     -0.373298
     55 C18         7.2800    0.1600    0.4150 c         1 MOL      0.675703
     56 O9          8.0650    0.8440    1.0530 o         1 MOL     -0.565945
     57 H25         5.4460   -2.3690    0.2210 hn        1 MOL      0.044176
     58 H26         8.2510   -1.7310    0.6750 h1        1 MOL      0.154996
     59 H27         6.8220   -1.3910    1.7460 h1        1 MOL      0.154996
     60 N6          6.6100    0.6570   -0.6260 n         1 MOL     -0.280889
     61 C19         6.7820    1.9870   -1.0520 c3        1 MOL      0.079151
     62 C20         5.5020    2.8840   -1.0690 c         1 MOL      0.648410
     63 O10         4.3620    2.3980   -1.1530 o         1 MOL     -0.697665
     64 C21         7.3300    2.0210   -2.5320 c3        1 MOL     -0.353695
     65 C22         8.5990    1.1770   -2.6190 c         1 MOL      0.709691
     66 N7          8.7090    0.2850   -3.6610 n         1 MOL     -0.880669
     67 O11         9.5430    1.3990   -1.9100 o         1 MOL     -0.522610
     68 H28         5.9340    0.1010   -1.1220 hn        1 MOL      0.312118
     69 H29         7.4620    2.5080   -0.3880 h1        1 MOL      0.042890
     70 H30         7.5920    3.0670   -2.6690 hc        1 MOL      0.094431
     71 H31         6.5400    1.6600   -3.1880 hc        1 MOL      0.094431
     72 H32         7.9490    0.1530   -4.3240 hn        1 MOL      0.396424
     73 H33         9.5820   -0.2180   -3.6430 hn        1 MOL      0.396424
     74 N8          5.6690    4.2060   -1.1620 n         1 MOL     -0.502887
     75 C23         4.4670    5.1560   -1.2640 c3        1 MOL     -0.133540
     76 C24         3.6990    5.0950    0.0930 c         1 MOL      0.664714
     77 O12         4.2720    4.9600    1.1540 o         1 MOL     -0.511090
     78 H34         6.5820    4.6220   -1.2760 hn        1 MOL      0.361027
     79 H35         3.8500    4.8860   -2.1230 h1        1 MOL      0.102214
     80 H36         4.7120    6.2120   -1.3450 h1        1 MOL      0.102214
     81 N9          2.4020    4.8930   -0.0500 n         1 MOL     -0.724549
     82 C25         1.4580    4.6730    1.0520 c3        1 MOL      0.469308
     83 C26         1.3970    3.1750    1.3550 c         1 MOL      0.366860
     84 O13         2.1650    2.3750    0.7960 o         1 MOL     -0.319269
     85 C27         0.0680    5.1480    0.6630 c3        1 MOL     -0.170461
     86 C28         0.0040    6.5940    0.3900 ca        1 MOL      0.071393
     87 C29        -0.2520    7.0560   -0.9150 ca        1 MOL     -0.164164
     88 C30         0.1000    7.5150    1.4700 ca        1 MOL     -0.164164
     89 C31        -0.3030    8.4590   -1.1320 ca        1 MOL     -0.205646
     90 C32        -0.0360    8.8810    1.2520 ca        1 MOL     -0.205646
     91 C33        -0.2040    9.3750   -0.0740 ca        1 MOL      0.263798
     92 O14        -0.4470   10.6820   -0.2250 oh        1 MOL     -0.416362
     93 H37         2.0140    4.7890   -0.9770 hn        1 MOL      0.250301
     94 H38         1.8790    5.1890    1.9040 h1        1 MOL      0.035644
     95 H39        -0.5750    4.9010    1.5070 hc        1 MOL      0.031457
     96 H40        -0.1800    4.5940   -0.2360 hc        1 MOL      0.031457
     97 H41        -0.2300    6.3980   -1.7660 ha        1 MOL      0.122027
     98 H42         0.2310    7.1370    2.4800 ha        1 MOL      0.122027
     99 H43        -0.4330    8.9220   -2.0950 ha        1 MOL      0.143412
    100 H44         0.0510    9.6640    1.9890 ha        1 MOL      0.143412
    101 H45        -0.9190   10.8320   -1.0440 ho        1 MOL      0.342628
    102 N10         0.4840    2.7530    2.2630 n         1 MOL     -0.719929
    103 C34         0.1530    1.3670    2.6470 c3        1 MOL      0.043824
    104 C35        -0.1460    0.4930    1.4350 c         1 MOL      0.707143
    105 O15         0.6650    0.2340    0.5250 o         1 MOL     -0.475904
    106 C36         1.1320    0.8290    3.6070 c3        1 MOL      0.089328
    107 C37         0.6210   -0.4120    4.3770 c3        1 MOL     -0.066746
    108 C38         1.4300    1.8660    4.7000 c3        1 MOL     -0.412903
    109 C39        -0.7310   -0.2390    4.9750 c3        1 MOL     -0.050713
    110 H46         0.0740    3.5050    2.7870 hn        1 MOL      0.344875
    111 H47        -0.7720    1.6360    3.1660 h1        1 MOL      0.098631
    112 H48         2.0350    0.5050    3.0910 hc        1 MOL      0.130048
    113 H49         1.2880   -0.7770    5.1480 hc        1 MOL      0.020582
    114 H50         0.5260   -1.2040    3.6310 hc        1 MOL      0.020582
    115 H51         2.0010    2.6790    4.2730 hc        1 MOL      0.125378
    116 H52         0.4910    2.2830    5.0700 hc        1 MOL      0.125378
    117 H53         2.0060    1.5170    5.5580 hc        1 MOL      0.125378
    118 H54        -1.5120   -0.3280    4.2280 hc        1 MOL      0.008942
    119 H55        -0.8540   -1.0950    5.6430 hc        1 MOL      0.008942
    120 H56        -0.9460    0.6300    5.6040 hc        1 MOL      0.008942
    121 N11        -1.3620   -0.1180    1.4460 n         1 MOL     -0.697692
    122 C40        -1.6000   -1.3200    0.6110 c3        1 MOL      0.034112
    123 C41        -3.0920   -1.6070    0.2800 c         1 MOL      0.618952
    124 O16        -3.4110   -2.2430   -0.7000 o         1 MOL     -0.600705
    125 C42        -0.9950   -2.4640    1.3560 c3        1 MOL      0.201991
    126 O17        -0.9270   -3.6260    0.5440 oh        1 MOL     -0.695904
    127 H57        -1.9980    0.0870    2.2010 hn        1 MOL      0.316503
    128 H58        -1.1450   -1.1590   -0.3640 h1        1 MOL      0.202368
    129 H59        -1.5300   -2.7230    2.2780 h1        1 MOL      0.041546
    130 H60         0.0540   -2.2590    1.5460 h1        1 MOL      0.041546
    131 H61        -0.9200   -4.3430    1.1870 ho        1 MOL      0.442327
    132 N12        -4.0110   -0.8210    0.8420 n         1 MOL     -0.571512
    133 C43        -5.4550   -0.8870    0.4340 c3        1 MOL      0.073074
    134 C44        -5.5730   -0.3290   -1.0200 c         1 MOL      0.686286
    135 O18        -4.7700    0.4480   -1.4690 o         1 MOL     -0.568877
    136 C45        -6.4310   -0.1780    1.3790 c3        1 MOL     -0.182197
    137 H62        -3.6770   -0.2230    1.5860 hn        1 MOL      0.322855
    138 H63        -5.7170   -1.9370    0.4650 h1        1 MOL      0.103156
    139 H64        -7.4150   -0.0080    0.9370 hc        1 MOL      0.071188
    140 H65        -6.5530   -0.6590    2.3520 hc        1 MOL      0.071188
    141 H66        -6.0880    0.8410    1.5720 hc        1 MOL      0.071188
    142 N13        -6.5670   -0.7350   -1.8350 n         1 MOL     -0.708966
    143 C46        -7.7750   -1.4730   -1.5040 c3        1 MOL      0.483926
    144 C47        -9.0650   -0.7190   -2.1190 c         1 MOL      0.321305
    145 O19        -9.0130   -0.2290   -3.2520 o         1 MOL     -0.521763
    146 C48        -7.6110   -2.9100   -1.8700 c3        1 MOL     -0.418116
    147 H67        -6.6020   -0.4060   -2.7910 hn        1 MOL      0.334366
    148 H68        -7.8690   -1.3640   -0.4250 h1        1 MOL     -0.063889
    149 H69        -7.1040   -3.4690   -1.0850 hc        1 MOL      0.104922
    150 H70        -8.5700   -3.4100   -2.0200 hc        1 MOL      0.104922
    151 H71        -7.0580   -2.9710   -2.8010 hc        1 MOL      0.104922
    152 N14       -10.2090   -0.6540   -1.4550 n         1 MOL     -0.260148
    153 C49       -10.5430   -1.1470   -0.1000 c3        1 MOL     -0.192654
    154 C50       -10.0190   -0.1950    0.9180 c         1 MOL      0.543617
    155 O20        -9.6400   -0.4760    2.0500 o         1 MOL     -0.564491
    156 C51       -12.0720   -1.3820    0.0590 c3        1 MOL      0.042360
    157 C52       -12.9500   -0.1020    0.0120 c3        1 MOL     -0.095580
    158 C53       -13.0390    0.4950   -1.3880 c         1 MOL      0.663413
    159 O21       -12.1800    1.3230   -1.7590 o         1 MOL     -0.693714
    160 O22       -13.8510   -0.0140   -2.2170 o         1 MOL     -0.693714
    161 H72       -10.9780   -0.2750   -1.9910 hn        1 MOL      0.310560
    162 H73        -9.9670   -2.0670   -0.0120 h1        1 MOL      0.070566
    163 H74       -12.1930   -1.8700    1.0250 hc        1 MOL      0.028735
    164 H75       -12.3740   -2.0960   -0.6970 hc        1 MOL      0.028735
    165 H76       -12.5750    0.7170    0.6370 hc        1 MOL     -0.008152
    166 H77       -13.9690   -0.4270    0.2370 hc        1 MOL     -0.008152
    167 N15        -9.9260    1.1130    0.5070 n         1 MOL     -0.122651
    168 C54        -9.2750    2.1910    1.3070 c3        1 MOL     -0.297290
    169 H78        -8.3500    2.4960    0.8180 h1        1 MOL      0.107510
    170 H79        -9.9470    3.0460    1.3790 h1        1 MOL      0.107510
    171 H80        -9.0510    1.8180    2.3070 h1        1 MOL      0.107510
    172 H81       -10.1890    1.3990   -0.4250 hn        1 MOL      0.186977
    173 Ca1         2.5570    0.5550   -1.1980 Ca        1 MOL      1.782082
    174 O23         0.5850    2.3690   -1.9010 oh        1 MOL     -0.862203
    175 H82        -0.3520    2.5700   -1.8550 ho        1 MOL      0.430706
    176 H83         0.9850    3.1750   -2.2260 ho        1 MOL      0.430706
    177 O24         0.3590   -0.3580   -2.5280 oh        1 MOL     -0.862203
    178 H84        -0.5850   -0.4700   -2.5850 ho        1 MOL      0.430706
    179 H85         0.6840   -0.6650   -3.3740 ho        1 MOL      0.430706
@<TRIPOS>BOND
     1    1    2 1   
     2    1    4 1   
     3    1    5 1   
     4    1    6 1   
     5    2    3 2   
     6    2    7 1   
     7    7    8 1   
     8    7   15 1   
     9    8    9 1   
    10    8   11 1   
    11    8   16 1   
    12    9   10 2   
    13    9   19 1   
    14   11   12 1   
    15   11   17 1   
    16   11   18 1   
    17   12   13 1   
    18   12   14 1   
    19   19   20 1   
    20   19   28 1   
    21   20   21 1   
    22   20   23 1   
    23   20   29 1   
    24   21   22 2   
    25   21   41 1   
    26   23   24 1   
    27   23   30 1   
    28   23   31 1   
    29   24   25 1   
    30   24   32 1   
    31   24   33 1   
    32   25   26 1   
    33   25   34 1   
    34   25   35 1   
    35   26   27 1   
    36   26   36 1   
    37   26   37 1   
    38   27   38 1   
    39   27   39 1   
    40   27   40 1   
    41   41   42 1   
    42   41   49 1   
    43   42   43 1   
    44   42   45 1   
    45   42   50 1   
    46   43   44 2   
    47   43   53 1   
    48   45   46 1   
    49   45   51 1   
    50   45   52 1   
    51   46   47 1   
    52   46   48 1   
    53   53   54 1   
    54   53   57 1   
    55   54   55 1   
    56   54   58 1   
    57   54   59 1   
    58   55   56 2   
    59   55   60 1   
    60   60   61 1   
    61   60   68 1   
    62   61   62 1   
    63   61   64 1   
    64   61   69 1   
    65   62   63 2   
    66   62   74 1   
    67   64   65 1   
    68   64   70 1   
    69   64   71 1   
    70   65   66 1   
    71   65   67 2   
    72   66   72 1   
    73   66   73 1   
    74   74   75 1   
    75   74   78 1   
    76   75   76 1   
    77   75   79 1   
    78   75   80 1   
    79   76   77 2   
    80   76   81 1   
    81   81   82 1   
    82   81   93 1   
    83   82   83 1   
    84   82   85 1   
    85   82   94 1   
    86   83   84 2   
    87   83  102 1   
    88   85   86 1   
    89   85   95 1   
    90   85   96 1   
    91   86   87 ar  
    92   86   88 ar  
    93   87   89 ar  
    94   87   97 1   
    95   88   90 ar  
    96   88   98 1   
    97   89   91 ar  
    98   89   99 1   
    99   90   91 ar  
   100   90  100 1   
   101   91   92 1   
   102   92  101 1   
   103  102  103 1   
   104  102  110 1   
   105  103  104 1   
   106  103  106 1   
   107  103  111 1   
   108  104  105 2   
   109  104  121 1   
   110  106  107 1   
   111  106  108 1   
   112  106  112 1   
   113  107  109 1   
   114  107  113 1   
   115  107  114 1   
   116  108  115 1   
   117  108  116 1   
   118  108  117 1   
   119  109  118 1   
   120  109  119 1   
   121  109  120 1   
   122  121  122 1   
   123  121  127 1   
   124  122  123 1   
   125  122  125 1   
   126  122  128 1   
   127  123  124 2   
   128  123  132 1   
   129  125  126 1   
   130  125  129 1   
   131  125  130 1   
   132  126  131 1   
   133  132  133 1   
   134  132  137 1   
   135  133  134 1   
   136  133  136 1   
   137  133  138 1   
   138  134  135 2   
   139  134  142 1   
   140  136  139 1   
   141  136  140 1   
   142  136  141 1   
   143  142  143 1   
   144  142  147 1   
   145  143  144 1   
   146  143  146 1   
   147  143  148 1   
   148  144  145 2   
   149  144  152 1   
   150  146  149 1   
   151  146  150 1   
   152  146  151 1   
   153  152  153 1   
   154  152  161 1   
   155  153  154 1   
   156  153  156 1   
   157  153  162 1   
   158  154  155 2   
   159  154  167 1   
   160  156  157 1   
   161  156  163 1   
   162  156  164 1   
   163  157  158 1   
   164  157  165 1   
   165  157  166 1   
   166  158  159 1   
   167  158  160 1   
   168  167  168 1   
   169  167  172 1   
   170  168  169 1   
   171  168  170 1   
   172  168  171 1   
   173  174  175 1   
   174  174  176 1   
   175  177  178 1   
   176  177  179 1   
@<TRIPOS>SUBSTRUCTURE
     1 MOL         1 TEMP              0 ****  ****    0 ROOT
