@<TRIPOS>MOLECULE
MOL
  192   187     1     0     0
SMALL
resp


@<TRIPOS>ATOM
      1 C1          4.4120    4.0310   -3.9060 c3        1 MOL     -0.413689
      2 C2          5.0860    3.3100   -2.6820 c         1 MOL      0.770005
      3 O1          4.4990    3.0460   -1.6690 o         1 MOL     -0.629388
      4 H1          5.1750    4.2830   -4.6440 hc        1 MOL      0.109225
      5 H2          3.6750    3.3680   -4.3590 hc        1 MOL      0.109225
      6 H3          3.9210    4.9430   -3.5660 hc        1 MOL      0.109225
      7 N1          6.3260    2.8520   -2.8770 n         1 MOL     -0.745904
      8 C3          7.0070    1.9190   -2.0420 c3        1 MOL      0.276114
      9 C4          6.0960    0.7730   -1.5180 c         1 MOL      0.282816
     10 O2          5.5720    0.5960   -0.4220 o         1 MOL     -0.490190
     11 C5          7.9120    2.6320   -0.9840 c3        1 MOL     -0.217344
     12 C6          7.1980    3.7610   -0.2230 c         1 MOL      0.838178
     13 O3          6.5480    3.4330    0.7760 o         1 MOL     -0.756171
     14 O4          7.3780    4.9730   -0.4590 o         1 MOL     -0.756171
     15 H4          6.7420    2.9750   -3.7940 hn        1 MOL      0.361645
     16 H5          7.7300    1.4880   -2.7360 h1        1 MOL      0.047406
     17 H6          8.7450    3.0360   -1.5500 hc        1 MOL      0.038475
     18 H7          8.4290    1.9430   -0.3110 hc        1 MOL      0.038475
     19 N2          5.7660   -0.0390   -2.5710 n         1 MOL     -0.436961
     20 C7          5.1100   -1.3190   -2.6130 c3        1 MOL      0.043828
     21 C8          5.7960   -2.3780   -1.8110 c         1 MOL      0.416267
     22 O5          6.0150   -3.4510   -2.3660 o         1 MOL     -0.584822
     23 C9          3.5550   -1.0770   -2.4110 c3        1 MOL      0.439415
     24 C10         2.8940   -2.3990   -2.9520 c3        1 MOL     -0.167403
     25 C11         2.8580    0.0640   -3.1900 c3        1 MOL     -0.069575
     26 C12         3.0210   -2.7140   -4.4700 c3        1 MOL     -0.137186
     27 H8          6.0730    0.3440   -3.4580 hn        1 MOL      0.252805
     28 H9          5.2850   -1.6100   -3.6450 h1        1 MOL      0.073715
     29 H10         3.3480   -0.9130   -1.3530 hc        1 MOL     -0.230249
     30 H11         1.8150   -2.4810   -2.7580 hc        1 MOL      0.070741
     31 H12         3.3510   -3.1560   -2.3220 hc        1 MOL      0.070741
     32 H13         3.1260    0.9920   -2.6930 hc        1 MOL     -0.003866
     33 H14         3.2330    0.1240   -4.2190 hc        1 MOL     -0.003866
     34 H15         1.7780   -0.0700   -3.1110 hc        1 MOL     -0.003866
     35 H16         4.0690   -2.8340   -4.7570 hc        1 MOL      0.013015
     36 H17         2.4460   -3.6020   -4.7260 hc        1 MOL      0.013015
     37 H18         2.6450   -1.8470   -5.0250 hc        1 MOL      0.013015
     38 N3          6.2050   -2.2470   -0.5560 n         1 MOL     -0.052243
     39 C13         6.9000   -3.3080    0.1830 c3        1 MOL     -0.074941
     40 C14         6.1220   -4.5380    0.5990 c         1 MOL      0.566332
     41 O6          6.6440   -5.6230    0.7060 o         1 MOL     -0.592531
     42 C15         7.5760   -2.6120    1.3920 c3        1 MOL      0.011575
     43 C16         8.2180   -1.2250    1.1380 c         1 MOL      0.710079
     44 O7          8.1160   -0.4430    2.1070 o         1 MOL     -0.709865
     45 O8          8.8520   -1.1410    0.0400 o         1 MOL     -0.709865
     46 H19         6.0290   -1.3480   -0.1310 hn        1 MOL      0.158668
     47 H20         7.6550   -3.6060   -0.5460 h1        1 MOL      0.061735
     48 H21         8.3590   -3.3330    1.6520 hc        1 MOL     -0.010794
     49 H22         6.8520   -2.5500    2.2060 hc        1 MOL     -0.010794
     50 N4          4.8400   -4.4920    0.9440 n         1 MOL     -0.406753
     51 C17         3.9120   -3.3740    1.2310 c3        1 MOL      0.006259
     52 C18         2.7660   -3.8350    2.1650 c         1 MOL      0.688979
     53 O9          2.3970   -5.0000    2.1750 o         1 MOL     -0.626027
     54 H23         4.4490   -5.4140    1.1130 hn        1 MOL      0.254326
     55 H24         3.6120   -2.9080    0.2860 h1        1 MOL      0.020534
     56 H25         4.4850   -2.6120    1.7550 h1        1 MOL      0.020534
     57 N5          2.0950   -3.0450    2.9840 n         1 MOL     -0.333808
     58 C19         2.2780   -1.5220    3.0730 c3        1 MOL      0.159953
     59 C20         2.3910   -0.7630    1.7570 c         1 MOL      0.343317
     60 O10         3.3690   -0.0660    1.5110 o         1 MOL     -0.506554
     61 C21         3.5170   -1.2180    3.9510 c3        1 MOL     -0.659951
     62 C22         3.6500   -2.1200    5.0960 c         1 MOL      0.811808
     63 O11         4.4230   -3.0750    5.1260 o         1 MOL     -0.748114
     64 O12         2.8500   -2.0080    5.9940 o         1 MOL     -0.748114
     65 H26         1.3330   -3.4670    3.4900 hn        1 MOL      0.264111
     66 H27         1.4160   -1.1490    3.6260 h1        1 MOL      0.075472
     67 H28         3.4990   -0.1880    4.3080 hc        1 MOL      0.176903
     68 H29         4.4630   -1.3300    3.4250 hc        1 MOL      0.176903
     69 N6          1.4040   -0.7320    0.8850 n         1 MOL     -0.251363
     70 C23         0.0100   -1.2440    0.8340 c3        1 MOL     -0.017833
     71 C24        -0.0770   -2.6020    0.3470 c         1 MOL      0.222563
     72 O13         0.7150   -3.0350   -0.4950 o         1 MOL     -0.462243
     73 H30         1.6230   -0.1010    0.1180 hn        1 MOL      0.301704
     74 H31        -0.5940   -0.6090    0.1780 h1        1 MOL      0.073564
     75 H32        -0.4460   -1.1110    1.8050 h1        1 MOL      0.073564
     76 N7         -1.0600   -3.2950    0.8730 n         1 MOL     -0.222243
     77 C25        -1.4820   -4.5930    0.4260 c3        1 MOL     -0.009217
     78 C26        -2.3880   -4.5450   -0.8700 c         1 MOL      0.356956
     79 O14        -2.8340   -5.5970   -1.3810 o         1 MOL     -0.532735
     80 C27        -2.1140   -5.4230    1.5730 c3        1 MOL     -0.102012
     81 C28        -3.1850   -4.6250    2.3500 c3        1 MOL     -0.052806
     82 C29        -4.3680   -4.1380    1.4120 c         1 MOL      0.339567
     83 N8         -5.0860   -5.0510    0.8660 n         1 MOL     -0.466341
     84 O15        -4.4860   -3.0190    1.0390 o         1 MOL     -0.494978
     85 H33        -1.7680   -2.8840    1.4640 hn        1 MOL      0.194976
     86 H34        -0.5430   -5.0710    0.1500 h1        1 MOL      0.143053
     87 H35        -1.3270   -5.6110    2.3020 hc        1 MOL      0.057042
     88 H36        -2.5200   -6.3280    1.1120 hc        1 MOL      0.057042
     89 H37        -2.6870   -3.7860    2.8540 hc        1 MOL      0.052341
     90 H38        -3.5390   -5.2120    3.1930 hc        1 MOL      0.052341
     91 H39        -5.0190   -5.9480    1.3180 hn        1 MOL      0.279812
     92 H40        -5.8750   -4.8200    0.2820 hn        1 MOL      0.279812
     93 N9         -2.5580   -3.3640   -1.4380 n         1 MOL     -0.041819
     94 C30        -3.0490   -3.1190   -2.8760 c3        1 MOL     -0.138434
     95 C31        -4.3520   -2.3430   -2.9840 c         1 MOL      0.586670
     96 O16        -4.9090   -2.2340   -4.0380 o         1 MOL     -0.542692
     97 C32        -1.9770   -2.5260   -3.8020 c3        1 MOL      0.160201
     98 C33        -0.7760   -3.5420   -3.9210 c3        1 MOL     -0.246383
     99 C34        -1.4660   -1.1470   -3.2380 c3        1 MOL     -0.246383
    100 H41        -2.3820   -2.5640   -0.8430 hn        1 MOL      0.173472
    101 H42        -3.2620   -4.1080   -3.2780 h1        1 MOL      0.097489
    102 H43        -2.4860   -2.5150   -4.7650 hc        1 MOL     -0.000401
    103 H44        -0.3320   -3.7550   -2.9390 hc        1 MOL      0.070231
    104 H45        -1.0650   -4.4700   -4.4060 hc        1 MOL      0.070231
    105 H46        -0.1020   -3.0780   -4.6390 hc        1 MOL      0.070231
    106 H47        -0.7970   -0.7160   -3.9810 hc        1 MOL      0.070231
    107 H48        -2.2090   -0.4020   -2.9480 hc        1 MOL      0.070231
    108 H49        -0.8120   -1.2830   -2.3750 hc        1 MOL      0.070231
    109 N10        -4.9220   -1.9370   -1.7980 n         1 MOL     -0.525810
    110 C35        -6.3480   -1.4560   -1.7470 c3        1 MOL      0.216383
    111 C36        -6.5390   -0.0960   -1.1460 c         1 MOL      0.428344
    112 O17        -7.5790    0.5270   -1.4570 o         1 MOL     -0.541244
    113 C37        -7.2780   -2.4660   -1.0060 c3        1 MOL     -0.390822
    114 C38        -7.3420   -3.8280   -1.6830 c         1 MOL      0.659086
    115 N11        -7.4910   -3.8400   -2.9980 n         1 MOL     -0.751926
    116 O18        -7.3480   -4.9090   -1.0730 o         1 MOL     -0.559888
    117 H50        -4.4570   -2.1150   -0.9260 hn        1 MOL      0.281301
    118 H51        -6.7260   -1.1880   -2.7330 h1        1 MOL      0.049961
    119 H52        -8.2610   -2.0160   -1.0050 hc        1 MOL      0.156088
    120 H53        -6.9580   -2.7050    0.0130 hc        1 MOL      0.156088
    121 H54        -7.6280   -3.0570   -3.6160 hn        1 MOL      0.357411
    122 H55        -7.4090   -4.7140   -3.4970 hn        1 MOL      0.357411
    123 N12        -5.6570    0.3920   -0.2990 n         1 MOL     -0.314164
    124 C39        -5.8190    1.5600    0.5460 c3        1 MOL      0.028881
    125 C40        -4.5250    2.3260    0.7220 c         1 MOL      0.484659
    126 O19        -3.5150    1.7090    1.0350 o         1 MOL     -0.455378
    127 C41        -6.3980    1.1940    1.8980 c3        1 MOL     -0.093743
    128 C42        -7.8740    0.7980    1.8570 ca        1 MOL     -0.002679
    129 C43        -8.8350    1.7920    1.8460 ca        1 MOL     -0.133786
    130 C44        -8.2100   -0.5620    1.5810 ca        1 MOL     -0.133786
    131 C45       -10.1690    1.5120    1.6360 ca        1 MOL     -0.230716
    132 C46        -9.6020   -0.8740    1.5330 ca        1 MOL     -0.230716
    133 C47       -10.5410    0.1890    1.5380 ca        1 MOL      0.317998
    134 O20       -11.8500   -0.2110    1.3760 oh        1 MOL     -0.520905
    135 H56        -4.7530   -0.0310   -0.1700 hn        1 MOL      0.192448
    136 H57        -6.5530    2.1430   -0.0050 h1        1 MOL      0.055882
    137 H58        -6.3040    2.0960    2.5040 hc        1 MOL      0.091984
    138 H59        -5.8190    0.3740    2.3230 hc        1 MOL      0.091984
    139 H60        -8.5750    2.8510    1.9000 ha        1 MOL      0.132975
    140 H61        -7.4090   -1.2860    1.6130 ha        1 MOL      0.132975
    141 H62       -10.8720    2.3330    1.6340 ha        1 MOL      0.126129
    142 H63        -9.9660   -1.8970    1.4750 ha        1 MOL      0.126129
    143 H64       -12.4200    0.5510    1.2480 ho        1 MOL      0.363638
    144 N13        -4.5840    3.6340    0.3830 n         1 MOL     -0.490878
    145 C48        -3.7210    4.7540    0.7550 c3        1 MOL     -0.020393
    146 C49        -2.5330    5.0200   -0.2120 c         1 MOL      0.216785
    147 O21        -1.7960    6.0380   -0.1380 o         1 MOL     -0.471219
    148 C50        -3.3150    4.7420    2.2160 c3        1 MOL      0.199432
    149 C51        -4.5180    4.7180    3.1270 c3        1 MOL     -0.222826
    150 C52        -4.1890    5.0500    4.6320 c         1 MOL      0.688226
    151 O22        -4.8280    5.9490    5.1960 o         1 MOL     -0.719953
    152 O23        -3.2100    4.5240    5.2030 o         1 MOL     -0.719953
    153 H65        -5.3560    3.9080   -0.2050 hn        1 MOL      0.295172
    154 H66        -4.3440    5.6250    0.5550 h1        1 MOL      0.100074
    155 H67        -2.6890    5.6240    2.3930 hc        1 MOL      0.019153
    156 H68        -2.6700    3.9180    2.5280 hc        1 MOL      0.019153
    157 H69        -4.9780    3.7290    3.1670 hc        1 MOL     -0.013557
    158 H70        -5.2400    5.4140    2.7140 hc        1 MOL     -0.013557
    159 N14        -2.2640    4.0690   -1.1000 n         1 MOL     -0.051258
    160 C53        -1.2050    4.1900   -2.0590 c3        1 MOL     -0.399428
    161 C54        -1.6100    4.9300   -3.3420 c         1 MOL      0.561829
    162 O24        -0.7880    5.3770   -4.1020 o         1 MOL     -0.534128
    163 C55        -0.7000    2.8230   -2.4210 c3        1 MOL      0.220620
    164 C56        -0.3500    1.8970   -1.2070 c3        1 MOL      0.221686
    165 C57         0.7180    2.5350   -0.2600 c         1 MOL      0.410576
    166 O25         1.8320    1.9910   -0.1880 o         1 MOL     -0.579289
    167 O26         0.4860    3.3970    0.6380 o         1 MOL     -0.579289
    168 H71        -2.7620    3.1890   -1.0810 hn        1 MOL      0.172009
    169 H72        -0.3390    4.7420   -1.7040 h1        1 MOL      0.235798
    170 H73         0.1980    2.9030   -3.0290 hc        1 MOL     -0.051959
    171 H74        -1.3900    2.2530   -3.0440 hc        1 MOL     -0.051959
    172 H75         0.0270    1.0020   -1.7060 hc        1 MOL     -0.091694
    173 H76        -1.1950    1.5770   -0.6030 hc        1 MOL     -0.091694
    174 N15        -2.9410    5.0860   -3.6590 n         1 MOL     -0.322787
    175 C58        -3.4650    5.6580   -5.0010 c3        1 MOL     -0.153511
    176 H77        -2.6350    6.0940   -5.5580 h1        1 MOL      0.084510
    177 H78        -3.9140    4.8570   -5.5880 h1        1 MOL      0.084510
    178 H79        -4.2120    6.4260   -4.8020 h1        1 MOL      0.084510
    179 H80        -3.6240    4.7800   -2.9850 hn        1 MOL      0.214145
    180 Ca1         4.1940    2.2900    1.0230 Ca        1 MOL      1.784517
    181 O27         3.5650    4.8420    0.5210 oh        1 MOL     -0.848371
    182 H81         2.8600    5.4860    0.5840 ho        1 MOL      0.410552
    183 H82         4.0640    5.0910   -0.2580 ho        1 MOL      0.410552
    184 O28         2.1150    2.3010    2.8470 oh        1 MOL     -0.848371
    185 H83         1.4010    2.5750    2.2750 ho        1 MOL      0.410552
    186 H84         1.7700    2.4300    3.7330 ho        1 MOL      0.410552
    187 O29         4.7210    3.8330    3.2880 oh        1 MOL     -0.848371
    188 H85         5.1470    4.6860    3.2190 ho        1 MOL      0.410552
    189 H86         4.3500    3.8240    4.1670 ho        1 MOL      0.410552
    190 O30         5.9160    0.9170    2.5990 oh        1 MOL     -0.848371
    191 H87         5.9680    0.5820    3.4920 ho        1 MOL      0.410552
    192 H88         6.6400    0.4830    2.1430 ho        1 MOL      0.410552
@<TRIPOS>BOND
     1    1    2 1   
     2    1    4 1   
     3    1    5 1   
     4    1    6 1   
     5    2    3 2   
     6    2    7 1   
     7    7    8 1   
     8    7   15 1   
     9    8    9 1   
    10    8   11 1   
    11    8   16 1   
    12    9   10 2   
    13    9   19 1   
    14   11   12 1   
    15   11   17 1   
    16   11   18 1   
    17   12   13 1   
    18   12   14 1   
    19   19   20 1   
    20   19   27 1   
    21   20   21 1   
    22   20   23 1   
    23   20   28 1   
    24   21   22 2   
    25   21   38 1   
    26   23   24 1   
    27   23   25 1   
    28   23   29 1   
    29   24   26 1   
    30   24   30 1   
    31   24   31 1   
    32   25   32 1   
    33   25   33 1   
    34   25   34 1   
    35   26   35 1   
    36   26   36 1   
    37   26   37 1   
    38   38   39 1   
    39   38   46 1   
    40   39   40 1   
    41   39   42 1   
    42   39   47 1   
    43   40   41 2   
    44   40   50 1   
    45   42   43 1   
    46   42   48 1   
    47   42   49 1   
    48   43   44 1   
    49   43   45 1   
    50   50   51 1   
    51   50   54 1   
    52   51   52 1   
    53   51   55 1   
    54   51   56 1   
    55   52   53 2   
    56   52   57 1   
    57   57   58 1   
    58   57   65 1   
    59   58   59 1   
    60   58   61 1   
    61   58   66 1   
    62   59   60 2   
    63   59   69 1   
    64   61   62 1   
    65   61   67 1   
    66   61   68 1   
    67   62   63 1   
    68   62   64 1   
    69   69   70 1   
    70   69   73 1   
    71   70   71 1   
    72   70   74 1   
    73   70   75 1   
    74   71   72 2   
    75   71   76 1   
    76   76   77 1   
    77   76   85 1   
    78   77   78 1   
    79   77   80 1   
    80   77   86 1   
    81   78   79 2   
    82   78   93 1   
    83   80   81 1   
    84   80   87 1   
    85   80   88 1   
    86   81   82 1   
    87   81   89 1   
    88   81   90 1   
    89   82   83 1   
    90   82   84 2   
    91   83   91 1   
    92   83   92 1   
    93   93   94 1   
    94   93  100 1   
    95   94   95 1   
    96   94   97 1   
    97   94  101 1   
    98   95   96 2   
    99   95  109 1   
   100   97   98 1   
   101   97   99 1   
   102   97  102 1   
   103   98  103 1   
   104   98  104 1   
   105   98  105 1   
   106   99  106 1   
   107   99  107 1   
   108   99  108 1   
   109  109  110 1   
   110  109  117 1   
   111  110  111 1   
   112  110  113 1   
   113  110  118 1   
   114  111  112 2   
   115  111  123 1   
   116  113  114 1   
   117  113  119 1   
   118  113  120 1   
   119  114  115 1   
   120  114  116 2   
   121  115  121 1   
   122  115  122 1   
   123  123  124 1   
   124  123  135 1   
   125  124  125 1   
   126  124  127 1   
   127  124  136 1   
   128  125  126 2   
   129  125  144 1   
   130  127  128 1   
   131  127  137 1   
   132  127  138 1   
   133  128  129 ar  
   134  128  130 ar  
   135  129  131 ar  
   136  129  139 1   
   137  130  132 ar  
   138  130  140 1   
   139  131  133 ar  
   140  131  141 1   
   141  132  133 ar  
   142  132  142 1   
   143  133  134 1   
   144  134  143 1   
   145  144  145 1   
   146  144  153 1   
   147  145  146 1   
   148  145  148 1   
   149  145  154 1   
   150  146  147 2   
   151  146  159 1   
   152  148  149 1   
   153  148  155 1   
   154  148  156 1   
   155  149  150 1   
   156  149  157 1   
   157  149  158 1   
   158  150  151 1   
   159  150  152 1   
   160  159  160 1   
   161  159  168 1   
   162  160  161 1   
   163  160  163 1   
   164  160  169 1   
   165  161  162 2   
   166  161  174 1   
   167  163  164 1   
   168  163  170 1   
   169  163  171 1   
   170  164  165 1   
   171  164  172 1   
   172  164  173 1   
   173  165  166 1   
   174  165  167 1   
   175  174  175 1   
   176  174  179 1   
   177  175  176 1   
   178  175  177 1   
   179  175  178 1   
   180  181  182 1   
   181  181  183 1   
   182  184  185 1   
   183  184  186 1   
   184  187  188 1   
   185  187  189 1   
   186  190  191 1   
   187  190  192 1   
@<TRIPOS>SUBSTRUCTURE
     1 MOL         1 TEMP              0 ****  ****    0 ROOT
