@<TRIPOS>MOLECULE
MOL
  182   178     1     0     0
SMALL
resp


@<TRIPOS>ATOM
      1 C1          1.5230   -5.3000    5.6760 c3        1 MOL     -0.397953
      2 C2          1.5350   -4.6640    4.2670 c         1 MOL      0.763066
      3 O1          0.7020   -4.8960    3.4000 o         1 MOL     -0.645844
      4 H1          0.6730   -5.9780    5.7600 hc        1 MOL      0.114662
      5 H2          2.4480   -5.8560    5.8320 hc        1 MOL      0.114662
      6 H3          1.4370   -4.5160    6.4280 hc        1 MOL      0.114662
      7 N1          2.5640   -3.8220    4.0350 n         1 MOL     -0.579977
      8 C3          3.0090   -3.3540    2.7250 c3        1 MOL      0.155439
      9 C4          3.6320   -4.5350    1.8910 c         1 MOL      0.413770
     10 O2          4.5980   -5.2650    2.1320 o         1 MOL     -0.519727
     11 C5          4.0200   -2.1870    2.7530 c3        1 MOL     -0.083812
     12 C6          3.8810   -1.3100    1.4650 c         1 MOL      0.499335
     13 O3          4.0950   -0.0420    1.4570 o         1 MOL     -0.593771
     14 O4          3.4290   -1.8550    0.4450 o         1 MOL     -0.593771
     15 H4          3.1600   -3.6180    4.8350 hn        1 MOL      0.302518
     16 H5          2.1040   -2.9440    2.2760 h1        1 MOL     -0.027345
     17 H6          5.0280   -2.5700    2.6300 hc        1 MOL      0.037830
     18 H7          3.7610   -1.5970    3.6330 hc        1 MOL      0.037830
     19 N2          2.9360   -4.6510    0.7700 n         1 MOL      0.011075
     20 C7          3.1990   -5.5590   -0.3310 c3        1 MOL     -0.046403
     21 C8          4.4140   -5.1980   -1.1160 c         1 MOL      0.554603
     22 O5          5.0010   -6.0520   -1.7560 o         1 MOL     -0.560346
     23 C9          1.9610   -5.9110   -1.1860 c3        1 MOL     -0.273064
     24 C10         1.2560   -4.7860   -1.8650 c3        1 MOL      0.170468
     25 C11         0.1360   -5.2330   -2.7890 c3        1 MOL     -0.286466
     26 C12        -0.4560   -4.0300   -3.6020 c3        1 MOL      0.179034
     27 N3         -1.5420   -4.6030   -4.5280 n4        1 MOL     -0.320355
     28 H8          2.1050   -4.0800    0.6780 hn        1 MOL     -0.039827
     29 H9          3.5140   -6.4730    0.1800 h1        1 MOL      0.093094
     30 H10         1.2730   -6.4110   -0.5110 hc        1 MOL      0.097537
     31 H11         2.3460   -6.6110   -1.9300 hc        1 MOL      0.097537
     32 H12         1.9870   -4.1890   -2.4060 hc        1 MOL      0.024753
     33 H13         0.8950   -3.9960   -1.1980 hc        1 MOL      0.024753
     34 H14        -0.6360   -5.6550   -2.1360 hc        1 MOL      0.095111
     35 H15         0.4850   -5.9860   -3.4980 hc        1 MOL      0.095111
     36 H16         0.2820   -3.4370   -4.1310 hx        1 MOL      0.028526
     37 H17        -0.7370   -3.3030   -2.8330 hx        1 MOL      0.028526
     38 H18        -1.1700   -5.2260   -5.2370 hn        1 MOL      0.273687
     39 H19        -2.2780   -5.1470   -4.0910 hn        1 MOL      0.273687
     40 H20        -1.9530   -3.8740   -5.0850 hn        1 MOL      0.273687
     41 N4          4.8320   -3.9200   -1.1200 n         1 MOL     -0.366734
     42 C13         6.1120   -3.4270   -1.6760 c3        1 MOL      0.010078
     43 C14         7.0370   -2.4520   -0.8470 c         1 MOL      0.381555
     44 O6          8.1540   -2.1870   -1.2820 o         1 MOL     -0.545302
     45 C15         5.8950   -2.6920   -2.9810 c3        1 MOL     -0.165417
     46 C16         5.1130   -1.3800   -2.9050 c         1 MOL      0.663619
     47 O7          4.7430   -0.7980   -1.8350 o         1 MOL     -0.715394
     48 O8          5.0370   -0.6910   -3.9580 o         1 MOL     -0.715394
     49 H21         4.1970   -3.2950   -0.6450 hn        1 MOL      0.144470
     50 H22         6.7790   -4.2380   -1.9660 h1        1 MOL      0.129943
     51 H23         5.4760   -3.4150   -3.6720 hc        1 MOL      0.075698
     52 H24         6.8760   -2.5860   -3.4360 hc        1 MOL      0.075698
     53 N5          6.6710   -2.0370    0.3100 n         1 MOL     -0.069933
     54 C17         7.3970   -1.0360    1.1600 c3        1 MOL     -0.349896
     55 C18         7.4190    0.5180    0.7900 c         1 MOL      0.545376
     56 O9          7.6910    1.3270    1.6550 o         1 MOL     -0.534836
     57 H25         5.7260   -2.2650    0.6100 hn        1 MOL      0.140259
     58 H26         8.4680   -1.2190    1.0760 h1        1 MOL      0.151297
     59 H27         7.0600   -1.0660    2.1970 h1        1 MOL      0.151297
     60 N6          6.9480    0.9210   -0.3930 n         1 MOL     -0.322035
     61 C19         6.9330    2.2860   -0.9320 c3        1 MOL      0.189154
     62 C20         5.4870    2.8920   -0.8510 c         1 MOL      0.485856
     63 O10         4.4830    2.1270   -0.7010 o         1 MOL     -0.552476
     64 C21         7.4330    2.2010   -2.3690 c3        1 MOL     -0.287658
     65 C22         7.5950    3.6350   -2.9020 c         1 MOL      0.638370
     66 N7          8.8180    4.0420   -2.7590 n         1 MOL     -0.738624
     67 O11         6.7860    4.3940   -3.4660 o         1 MOL     -0.588027
     68 H28         6.5880    0.2220   -1.0360 hn        1 MOL      0.295369
     69 H29         7.5870    3.0030   -0.4520 h1        1 MOL     -0.003989
     70 H30         6.6690    1.7460   -3.0080 hc        1 MOL      0.105606
     71 H31         8.3800    1.6570   -2.3310 hc        1 MOL      0.105606
     72 H32         9.5800    3.4350   -2.4790 hn        1 MOL      0.354311
     73 H33         8.9710    4.9830   -3.0800 hn        1 MOL      0.354311
     74 N8          5.4020    4.1490   -0.9210 n         1 MOL     -0.418024
     75 C23         4.1070    4.8600   -1.0190 c3        1 MOL     -0.009732
     76 C24         3.3280    4.9300    0.2880 c         1 MOL      0.558021
     77 O12         3.9200    4.7680    1.3470 o         1 MOL     -0.462205
     78 H34         6.2730    4.6720   -0.9680 hn        1 MOL      0.329388
     79 H35         3.4760    4.3470   -1.7430 h1        1 MOL      0.068112
     80 H36         4.2600    5.8910   -1.3190 h1        1 MOL      0.068112
     81 N9          1.9400    4.9820    0.2650 n         1 MOL     -0.614729
     82 C25         1.0140    4.4720    1.2990 c3        1 MOL      0.289595
     83 C26         1.1110    2.9300    1.5730 c         1 MOL      0.530623
     84 O13         1.9890    2.2450    1.0150 o         1 MOL     -0.458567
     85 C27        -0.3960    4.8020    0.6950 c3        1 MOL     -0.227871
     86 C28        -0.6680    6.2640    0.5710 ca        1 MOL      0.083234
     87 C29        -0.8650    6.9190   -0.6580 ca        1 MOL     -0.163966
     88 C30        -1.0290    6.8940    1.7580 ca        1 MOL     -0.163966
     89 C31        -1.3720    8.1950   -0.6420 ca        1 MOL     -0.261201
     90 C32        -1.3280    8.2930    1.7580 ca        1 MOL     -0.261201
     91 C33        -1.6460    8.9630    0.5730 ca        1 MOL      0.359471
     92 O14        -2.1260   10.1790    0.4880 oh        1 MOL     -0.460467
     93 H37         1.4730    5.3750   -0.5400 hn        1 MOL      0.285641
     94 H38         1.2310    5.0010    2.2200 h1        1 MOL      0.028900
     95 H39        -1.1690    4.3420    1.3090 hc        1 MOL      0.071050
     96 H40        -0.3460    4.3180   -0.2810 hc        1 MOL      0.071050
     97 H41        -0.4700    6.5640   -1.6010 ha        1 MOL      0.131996
     98 H42        -0.9150    6.3830    2.7000 ha        1 MOL      0.131996
     99 H43        -1.6580    8.6280   -1.5870 ha        1 MOL      0.144221
    100 H44        -1.6600    8.7140    2.6970 ha        1 MOL      0.144221
    101 H45        -2.3100   10.4800   -0.4090 ho        1 MOL      0.376424
    102 N10         0.2130    2.4170    2.3730 n         1 MOL     -0.651813
    103 C34        -0.0230    1.0240    2.8020 c3        1 MOL     -0.052853
    104 C35        -0.3000    0.0540    1.6740 c         1 MOL      0.804668
    105 O15         0.6380   -0.0930    0.8920 o         1 MOL     -0.644732
    106 C36         1.0730    0.4770    3.7600 c3        1 MOL      0.524419
    107 C37         0.7370   -0.8520    4.4310 c3        1 MOL     -0.298906
    108 C38         1.7450    1.5110    4.6150 c3        1 MOL     -0.299892
    109 C39        -0.3300   -0.7480    5.5570 c3        1 MOL     -0.174863
    110 H46        -0.4490    3.0670    2.7940 hn        1 MOL      0.328245
    111 H47        -0.8560    1.0870    3.5010 h1        1 MOL      0.042736
    112 H48         1.9110    0.0930    3.1760 hc        1 MOL     -0.093698
    113 H49         1.6430   -1.2560    4.8630 hc        1 MOL      0.117803
    114 H50         0.4280   -1.5710    3.6650 hc        1 MOL      0.117803
    115 H51         0.9680    2.0000    5.2080 hc        1 MOL      0.070126
    116 H52         2.2760    0.9380    5.3620 hc        1 MOL      0.070126
    117 H53         2.4210    2.1980    4.1060 hc        1 MOL      0.070126
    118 H54        -1.2640   -0.5550    5.0390 hc        1 MOL      0.037816
    119 H55        -0.2800   -1.7260    6.0360 hc        1 MOL      0.037816
    120 H56        -0.1980    0.0690    6.2540 hc        1 MOL      0.037816
    121 N11        -1.4510   -0.5680    1.4910 n         1 MOL     -0.642116
    122 C40        -1.8620   -1.4480    0.3440 c3        1 MOL      0.123634
    123 C41        -3.3250   -1.2620   -0.0380 c         1 MOL      0.373944
    124 O16        -3.8010   -1.8660   -1.0250 o         1 MOL     -0.511752
    125 C42        -1.5440   -2.9280    0.7330 c3        1 MOL     -0.004130
    126 O17        -0.2700   -3.2480    1.0780 oh        1 MOL     -0.459299
    127 H57        -2.1970   -0.4960    2.1600 hn        1 MOL      0.324323
    128 H58        -1.3070   -1.1430   -0.5430 h1        1 MOL      0.149521
    129 H59        -1.8420   -3.5710   -0.0970 h1        1 MOL      0.050349
    130 H60        -2.0810   -3.1390    1.6540 h1        1 MOL      0.050349
    131 H61        -0.1520   -4.0140    1.6490 ho        1 MOL      0.450787
    132 N12        -4.0970   -0.4030    0.6170 n         1 MOL     -0.319227
    133 C43        -5.4450   -0.1630    0.2520 c3        1 MOL      0.115143
    134 C44        -5.6190    0.6210   -1.0770 c         1 MOL      0.495375
    135 O18        -4.6340    1.1790   -1.5930 o         1 MOL     -0.541649
    136 C45        -6.1060    0.4770    1.4640 c3        1 MOL     -0.271369
    137 H62        -3.6260    0.0790    1.3800 hn        1 MOL      0.204051
    138 H63        -5.9890   -1.0950    0.0910 h1        1 MOL      0.107767
    139 H64        -7.2070    0.4470    1.4020 hc        1 MOL      0.088255
    140 H65        -5.9330   -0.0690    2.3890 hc        1 MOL      0.088255
    141 H66        -5.8260    1.5160    1.5770 hc        1 MOL      0.088255
    142 N13        -6.7680    0.5230   -1.7870 n         1 MOL     -0.513837
    143 C46        -7.9460   -0.2140   -1.5150 c3        1 MOL      0.500092
    144 C47        -9.1630    0.4280   -2.0910 c         1 MOL      0.262865
    145 O19        -9.0260    1.2400   -3.0130 o         1 MOL     -0.499817
    146 C48        -7.7210   -1.6610   -2.0760 c3        1 MOL     -0.257682
    147 H67        -6.9340    1.2290   -2.4870 hn        1 MOL      0.287171
    148 H68        -7.9830   -0.3230   -0.4360 h1        1 MOL     -0.113570
    149 H69        -7.9610   -1.6870   -3.1390 hc        1 MOL      0.068650
    150 H70        -6.6780   -1.9700   -2.0480 hc        1 MOL      0.068650
    151 H71        -8.2990   -2.3690   -1.4740 hc        1 MOL      0.068650
    152 N14       -10.3590    0.2340   -1.5150 n         1 MOL     -0.266260
    153 C49       -10.6620   -0.5140   -0.2610 c3        1 MOL     -0.354391
    154 C50       -10.2000    0.2340    0.9690 c         1 MOL      0.525136
    155 O20        -9.7800   -0.3970    1.9620 o         1 MOL     -0.514464
    156 C51       -12.1100   -0.9960   -0.1730 c3        1 MOL      0.238643
    157 C52       -12.5320   -1.8720   -1.3570 c3        1 MOL     -0.174014
    158 C53       -13.9950   -2.3130   -1.1380 c         1 MOL      0.674339
    159 O21       -14.8500   -1.8540   -1.9370 o         1 MOL     -0.649459
    160 O22       -14.1840   -3.1970   -0.2750 o         1 MOL     -0.649459
    161 H72       -11.0820    0.8790   -1.8110 hn        1 MOL      0.301848
    162 H73       -10.0110   -1.3840   -0.2470 h1        1 MOL      0.190609
    163 H74       -12.8080   -0.1550   -0.1990 hc        1 MOL     -0.016550
    164 H75       -12.4040   -1.5100    0.7490 hc        1 MOL     -0.016550
    165 H76       -11.7970   -2.6780   -1.2550 hc        1 MOL     -0.001535
    166 H77       -12.3290   -1.2240   -2.2080 hc        1 MOL     -0.001535
    167 N15       -10.1910    1.5790    0.8180 n         1 MOL     -0.328383
    168 C54        -9.7850    2.5240    1.8290 c3        1 MOL     -0.199845
    169 H78        -8.7030    2.6520    1.7910 h1        1 MOL      0.102362
    170 H79       -10.2700    3.4830    1.6470 h1        1 MOL      0.102362
    171 H80       -10.0730    2.1520    2.8120 h1        1 MOL      0.102362
    172 H81       -10.7460    1.9580    0.0600 hn        1 MOL      0.278536
    173 Ca1         2.6440    0.2710   -0.8210 Ca        1 MOL      1.755877
    174 O23         3.3030    1.3120   -3.4150 oh        1 MOL     -0.868892
    175 H82         4.0530    0.7380   -3.5970 ho        1 MOL      0.419014
    176 H83         3.3430    1.9700   -4.1140 ho        1 MOL      0.419014
    177 O24         0.3950    1.5990   -1.5700 oh        1 MOL     -0.868892
    178 H84         0.3830    1.7460   -2.5130 ho        1 MOL      0.419014
    179 H85        -0.5310    1.5400   -1.3180 ho        1 MOL      0.419014
    180 O25         1.0790   -0.9070   -2.5430 oh        1 MOL     -0.868892
    181 H86         0.2580   -0.5750   -2.9070 ho        1 MOL      0.419014
    182 H87         1.5270   -1.3110   -3.2810 ho        1 MOL      0.419014
@<TRIPOS>BOND
     1    1    2 1   
     2    1    4 1   
     3    1    5 1   
     4    1    6 1   
     5    2    3 2   
     6    2    7 1   
     7    7    8 1   
     8    7   15 1   
     9    8    9 1   
    10    8   11 1   
    11    8   16 1   
    12    9   10 2   
    13    9   19 1   
    14   11   12 1   
    15   11   17 1   
    16   11   18 1   
    17   12   13 1   
    18   12   14 1   
    19   19   20 1   
    20   19   28 1   
    21   20   21 1   
    22   20   23 1   
    23   20   29 1   
    24   21   22 2   
    25   21   41 1   
    26   23   24 1   
    27   23   30 1   
    28   23   31 1   
    29   24   25 1   
    30   24   32 1   
    31   24   33 1   
    32   25   26 1   
    33   25   34 1   
    34   25   35 1   
    35   26   27 1   
    36   26   36 1   
    37   26   37 1   
    38   27   38 1   
    39   27   39 1   
    40   27   40 1   
    41   41   42 1   
    42   41   49 1   
    43   42   43 1   
    44   42   45 1   
    45   42   50 1   
    46   43   44 2   
    47   43   53 1   
    48   45   46 1   
    49   45   51 1   
    50   45   52 1   
    51   46   47 1   
    52   46   48 1   
    53   53   54 1   
    54   53   57 1   
    55   54   55 1   
    56   54   58 1   
    57   54   59 1   
    58   55   56 2   
    59   55   60 1   
    60   60   61 1   
    61   60   68 1   
    62   61   62 1   
    63   61   64 1   
    64   61   69 1   
    65   62   63 2   
    66   62   74 1   
    67   64   65 1   
    68   64   70 1   
    69   64   71 1   
    70   65   66 1   
    71   65   67 2   
    72   66   72 1   
    73   66   73 1   
    74   74   75 1   
    75   74   78 1   
    76   75   76 1   
    77   75   79 1   
    78   75   80 1   
    79   76   77 2   
    80   76   81 1   
    81   81   82 1   
    82   81   93 1   
    83   82   83 1   
    84   82   85 1   
    85   82   94 1   
    86   83   84 2   
    87   83  102 1   
    88   85   86 1   
    89   85   95 1   
    90   85   96 1   
    91   86   87 ar  
    92   86   88 ar  
    93   87   89 ar  
    94   87   97 1   
    95   88   90 ar  
    96   88   98 1   
    97   89   91 ar  
    98   89   99 1   
    99   90   91 ar  
   100   90  100 1   
   101   91   92 1   
   102   92  101 1   
   103  102  103 1   
   104  102  110 1   
   105  103  104 1   
   106  103  106 1   
   107  103  111 1   
   108  104  105 2   
   109  104  121 1   
   110  106  107 1   
   111  106  108 1   
   112  106  112 1   
   113  107  109 1   
   114  107  113 1   
   115  107  114 1   
   116  108  115 1   
   117  108  116 1   
   118  108  117 1   
   119  109  118 1   
   120  109  119 1   
   121  109  120 1   
   122  121  122 1   
   123  121  127 1   
   124  122  123 1   
   125  122  125 1   
   126  122  128 1   
   127  123  124 2   
   128  123  132 1   
   129  125  126 1   
   130  125  129 1   
   131  125  130 1   
   132  126  131 1   
   133  132  133 1   
   134  132  137 1   
   135  133  134 1   
   136  133  136 1   
   137  133  138 1   
   138  134  135 2   
   139  134  142 1   
   140  136  139 1   
   141  136  140 1   
   142  136  141 1   
   143  142  143 1   
   144  142  147 1   
   145  143  144 1   
   146  143  146 1   
   147  143  148 1   
   148  144  145 2   
   149  144  152 1   
   150  146  149 1   
   151  146  150 1   
   152  146  151 1   
   153  152  153 1   
   154  152  161 1   
   155  153  154 1   
   156  153  156 1   
   157  153  162 1   
   158  154  155 2   
   159  154  167 1   
   160  156  157 1   
   161  156  163 1   
   162  156  164 1   
   163  157  158 1   
   164  157  165 1   
   165  157  166 1   
   166  158  159 1   
   167  158  160 1   
   168  167  168 1   
   169  167  172 1   
   170  168  169 1   
   171  168  170 1   
   172  168  171 1   
   173  174  175 1   
   174  174  176 1   
   175  177  178 1   
   176  177  179 1   
   177  180  181 1   
   178  180  182 1   
@<TRIPOS>SUBSTRUCTURE
     1 MOL         1 TEMP              0 ****  ****    0 ROOT
