@<TRIPOS>MOLECULE
MOL
  192   187     1     0     0
SMALL
resp


@<TRIPOS>ATOM
      1 C1        -13.3200   -3.7710   -2.5800 c3        1 MOL     -0.492063
      2 C2        -12.7030   -2.5550   -1.8440 c         1 MOL      0.699488
      3 O1        -13.1020   -1.4140   -2.1450 o         1 MOL     -0.612456
      4 H1        -13.1910   -4.6660   -1.9720 hc        1 MOL      0.131914
      5 H2        -14.3830   -3.5950   -2.7440 hc        1 MOL      0.131914
      6 H3        -12.8210   -3.9080   -3.5390 hc        1 MOL      0.131914
      7 N1        -11.7680   -2.7420   -0.9300 n         1 MOL     -0.367493
      8 C3        -11.1650   -1.6460   -0.1280 c3        1 MOL     -0.114914
      9 C4         -9.7050   -1.2890   -0.4240 c         1 MOL      0.403901
     10 O2         -8.8280   -2.1550   -0.4730 o         1 MOL     -0.379092
     11 C5        -11.4470   -1.9630    1.3520 c3        1 MOL     -0.134053
     12 C6        -11.0020   -3.3770    1.8890 c         1 MOL      0.729835
     13 O3        -10.2670   -4.1250    1.1700 o         1 MOL     -0.686452
     14 O4        -11.3690   -3.7510    3.0340 o         1 MOL     -0.686452
     15 H4        -11.3450   -3.6490   -0.8010 hn        1 MOL      0.176890
     16 H5        -11.6740   -0.7080   -0.3700 h1        1 MOL      0.107697
     17 H6        -12.5250   -1.9240    1.5060 hc        1 MOL      0.072368
     18 H7        -10.9770   -1.2580    2.0460 hc        1 MOL      0.072368
     19 N2         -9.4060    0.0480   -0.6030 n         1 MOL     -0.419714
     20 C7         -8.0680    0.4820   -0.9410 c3        1 MOL      0.188980
     21 C8         -7.0970    0.7480    0.2460 c         1 MOL      0.651432
     22 O5         -7.2760    1.6980    0.9410 o         1 MOL     -0.524538
     23 C9         -8.2580    1.6510   -1.8080 c3        1 MOL     -0.203471
     24 C10        -6.9200    2.1860   -2.4070 c3        1 MOL     -0.219665
     25 C11        -7.2760    3.1820   -3.5590 c3        1 MOL      0.231779
     26 C12        -6.0460    3.7330   -4.2020 c3        1 MOL     -0.011100
     27 N3         -6.5060    4.7520   -5.1970 n4        1 MOL     -0.488565
     28 H8        -10.1310    0.7570   -0.5500 hn        1 MOL      0.294864
     29 H9         -7.5950   -0.2500   -1.5940 h1        1 MOL      0.011494
     30 H10        -8.7830    2.4550   -1.2770 hc        1 MOL      0.079807
     31 H11        -8.8340    1.2900   -2.6600 hc        1 MOL      0.079807
     32 H12        -6.2660    1.5110   -2.9490 hc        1 MOL      0.064792
     33 H13        -6.4970    2.7630   -1.5840 hc        1 MOL      0.064792
     34 H14        -7.8900    3.9810   -3.1350 hc        1 MOL     -0.024375
     35 H15        -7.8730    2.6530   -4.2860 hc        1 MOL     -0.024375
     36 H16        -5.5630    2.9160   -4.7290 hx        1 MOL      0.112429
     37 H17        -5.4710    4.3540   -3.5120 hx        1 MOL      0.112429
     38 H18        -7.2610    5.3190   -4.8280 hn        1 MOL      0.314175
     39 H19        -5.8580    5.5090   -5.3640 hn        1 MOL      0.314175
     40 H20        -6.7610    4.3000   -6.0670 hn        1 MOL      0.314175
     41 N4         -6.1600   -0.1950    0.3720 n         1 MOL     -0.684075
     42 C13        -5.1320   -0.2030    1.4070 c3        1 MOL      0.409214
     43 C14        -3.6890   -0.4660    0.9640 c         1 MOL      0.327697
     44 O6         -3.4580   -1.1510   -0.0570 o         1 MOL     -0.559358
     45 C15        -5.5260   -1.1770    2.5580 c3        1 MOL     -0.040171
     46 C16        -6.2760   -2.3800    1.9930 c         1 MOL      0.711602
     47 O7         -7.5600   -2.4340    2.1980 o         1 MOL     -0.765765
     48 O8         -5.6820   -3.2960    1.3240 o         1 MOL     -0.765765
     49 H21        -6.3130   -1.0160   -0.1880 hn        1 MOL      0.263512
     50 H22        -5.1540    0.7860    1.8590 h1        1 MOL      0.006773
     51 H23        -6.2040   -0.5620    3.1430 hc        1 MOL      0.025202
     52 H24        -4.7080   -1.4980    3.1960 hc        1 MOL      0.025202
     53 N5         -2.6230   -0.0360    1.7010 n         1 MOL     -0.319303
     54 C17        -2.6810    0.6460    2.9900 c3        1 MOL     -0.061990
     55 C18        -2.6070    2.1800    2.8610 c         1 MOL      0.664413
     56 O9         -3.1760    2.7080    1.9070 o         1 MOL     -0.606043
     57 H25        -1.7310   -0.0070    1.2470 hn        1 MOL      0.302997
     58 H26        -1.8280    0.2660    3.5630 h1        1 MOL      0.040038
     59 H27        -3.5740    0.4070    3.5510 h1        1 MOL      0.040038
     60 N6         -1.8330    2.8020    3.6750 n         1 MOL     -0.443752
     61 C19        -1.4710    4.1980    3.7920 c3        1 MOL      0.033130
     62 C20        -0.3810    4.5820    2.8130 c         1 MOL      0.460269
     63 O10         0.6070    3.9230    2.6720 o         1 MOL     -0.493800
     64 C21        -1.0830    4.5600    5.2330 c3        1 MOL     -0.280786
     65 C22        -0.8850    6.1120    5.5720 c         1 MOL      0.662339
     66 O11        -0.1900    6.3760    6.5620 o         1 MOL     -0.631984
     67 O12        -1.5520    7.0380    5.0140 o         1 MOL     -0.631984
     68 H28        -1.4280    2.2550    4.4270 hn        1 MOL      0.257956
     69 H29        -2.4090    4.6990    3.5650 h1        1 MOL      0.067511
     70 H30        -0.2320    3.9490    5.5280 hc        1 MOL      0.095259
     71 H31        -1.8960    4.2500    5.8980 hc        1 MOL      0.095259
     72 N7         -0.5310    5.7310    2.2060 n         1 MOL     -0.240343
     73 C23         0.3020    6.1370    1.0150 c3        1 MOL     -0.007430
     74 C24         0.2010    5.2710   -0.2740 c         1 MOL      0.477313
     75 O13         1.0270    5.5010   -1.1620 o         1 MOL     -0.563066
     76 H32        -1.2920    6.3160    2.5160 hn        1 MOL      0.202502
     77 H33         1.3510    6.0970    1.2890 h1        1 MOL      0.064081
     78 H34         0.0310    7.1460    0.7010 h1        1 MOL      0.064081
     79 N8         -0.6340    4.2360   -0.3500 n         1 MOL     -0.183786
     80 C25        -0.6150    3.2140   -1.4750 c3        1 MOL      0.078199
     81 C26        -0.2530    1.7910   -0.9910 c         1 MOL      0.315665
     82 O14        -0.5250    1.5150    0.1810 o         1 MOL     -0.427896
     83 C27        -1.9700    3.1800   -2.2350 c3        1 MOL      0.160539
     84 C28        -3.1710    2.8030   -1.4690 c3        1 MOL     -0.388078
     85 O15        -2.2250    4.4690   -2.7620 oh        1 MOL     -0.609762
     86 H35        -1.1800    3.9870    0.4650 hn        1 MOL      0.114126
     87 H36         0.1540    3.4970   -2.2020 h1        1 MOL      0.044559
     88 H37        -1.8300    2.4940   -3.0800 h1        1 MOL     -0.008813
     89 H38        -1.7560    4.5010   -3.6050 ho        1 MOL      0.379243
     90 H39        -4.0580    3.1150   -2.0240 hc        1 MOL      0.147709
     91 H40        -3.2090    1.7290   -1.2970 hc        1 MOL      0.147709
     92 H41        -3.2520    3.3170   -0.5120 hc        1 MOL      0.147709
     93 N9          0.2440    0.9060   -1.8400 n         1 MOL     -0.127528
     94 C29         0.6240   -0.4250   -1.4630 c3        1 MOL     -0.158121
     95 C30         1.9980   -0.4440   -0.8190 c         1 MOL      0.659970
     96 O16         2.2800   -1.3780   -0.0460 o         1 MOL     -0.529458
     97 C31         0.4680   -1.3060   -2.6870 c3        1 MOL      0.057385
     98 C32        -1.0530   -1.4380   -3.0480 c3        1 MOL      0.109339
     99 C33         1.0570   -2.7130   -2.4880 c3        1 MOL     -0.306826
    100 C34        -1.0940   -1.4170   -4.5340 c3        1 MOL     -0.160867
    101 H42         0.4770    1.1850   -2.7780 hn        1 MOL      0.202748
    102 H43         0.0070   -0.8100   -0.6560 h1        1 MOL      0.085347
    103 H44         1.0150   -0.8510   -3.5070 hc        1 MOL      0.025618
    104 H45        -1.7430   -0.6850   -2.6760 hc        1 MOL      0.001435
    105 H46        -1.3950   -2.4180   -2.7080 hc        1 MOL      0.001435
    106 H47         0.6700   -3.1550   -1.5740 hc        1 MOL      0.092946
    107 H48         0.7860   -3.3970   -3.2930 hc        1 MOL      0.092946
    108 H49         2.1450   -2.6920   -2.3430 hc        1 MOL      0.092946
    109 H50        -2.0960   -1.7610   -4.8200 hc        1 MOL      0.019593
    110 H51        -1.0950   -0.3530   -4.7590 hc        1 MOL      0.019593
    111 H52        -0.3380   -2.0490   -5.0080 hc        1 MOL      0.019593
    112 N10         2.8310    0.5790   -1.1000 n         1 MOL     -0.462927
    113 C35         4.1420    0.8720   -0.5020 c3        1 MOL     -0.027183
    114 C36         5.0600    1.5440   -1.5590 c         1 MOL      0.722651
    115 O17         4.5640    1.9820   -2.5800 o         1 MOL     -0.538574
    116 C37         3.9310    1.7950    0.6550 c3        1 MOL      0.187128
    117 C38         3.1910    3.1010    0.4170 c3        1 MOL     -0.233686
    118 O18         3.3180    0.9060    1.5590 oh        1 MOL     -0.530996
    119 H53         2.5250    1.1910   -1.8310 hn        1 MOL      0.205016
    120 H54         4.6360   -0.0220   -0.1270 h1        1 MOL      0.093764
    121 H55         4.9160    2.1000    1.0290 h1        1 MOL      0.008166
    122 H56         3.5200    1.2700    2.4300 ho        1 MOL      0.384341
    123 H57         2.1450    2.9650    0.1520 hc        1 MOL      0.078522
    124 H58         3.2420    3.7920    1.2610 hc        1 MOL      0.078522
    125 H59         3.7480    3.6510   -0.3420 hc        1 MOL      0.078522
    126 N11         6.3990    1.4740   -1.3890 n         1 MOL     -0.683506
    127 C39         7.5350    1.7720   -2.2630 c3        1 MOL      0.127419
    128 C40         8.6320    0.7380   -2.2290 c         1 MOL      0.568824
    129 O19         8.9070    0.2050   -3.3300 o         1 MOL     -0.571159
    130 C41         8.0700    3.2120   -2.0500 c3        1 MOL      0.272716
    131 C42         9.1730    3.7160   -3.0020 c3        1 MOL     -0.419307
    132 O20         8.6850    3.1690   -0.7740 oh        1 MOL     -0.661255
    133 H60         6.6900    1.1850   -0.4660 hn        1 MOL      0.303891
    134 H61         7.1990    1.8990   -3.2980 h1        1 MOL      0.068664
    135 H62         7.2350    3.8970   -2.0990 h1        1 MOL      0.043364
    136 H63         8.6950    4.0970   -0.5270 ho        1 MOL      0.409905
    137 H64         8.6970    4.0580   -3.9290 hc        1 MOL      0.113127
    138 H65         9.6900    4.5840   -2.6060 hc        1 MOL      0.113127
    139 H66         9.8050    2.8710   -3.2910 hc        1 MOL      0.113127
    140 N12         9.2130    0.3770   -1.1050 n         1 MOL     -0.295407
    141 C43        10.1740   -0.7170   -1.0100 c3        1 MOL     -0.220249
    142 C44         9.8790   -1.4120    0.3380 c         1 MOL      0.485560
    143 O21         9.7200   -0.8030    1.3790 o         1 MOL     -0.502400
    144 C45        11.6560   -0.3100   -1.0620 c3        1 MOL     -0.088836
    145 C46        12.6260   -1.5000   -0.9390 c3        1 MOL      0.036463
    146 C47        14.0710   -1.2360   -1.2460 c3        1 MOL      0.063044
    147 C48        14.5580   -0.1610   -0.3080 c3        1 MOL      0.038836
    148 N13        15.9720    0.1250   -0.6190 n4        1 MOL     -0.438170
    149 H67         8.9100    0.7900   -0.2380 hn        1 MOL      0.298577
    150 H68        10.0850   -1.4310   -1.8330 h1        1 MOL      0.121585
    151 H69        11.8660    0.3000   -0.1870 hc        1 MOL      0.052536
    152 H70        11.8180    0.4240   -1.8620 hc        1 MOL      0.052536
    153 H71        12.2910   -2.2530   -1.6590 hc        1 MOL      0.008818
    154 H72        12.4790   -1.9190    0.0530 hc        1 MOL      0.008818
    155 H73        14.1850   -0.8180   -2.2410 hc        1 MOL      0.007015
    156 H74        14.4950   -2.2190   -1.0530 hc        1 MOL      0.007015
    157 H75        14.4810   -0.6100    0.6840 hx        1 MOL      0.088967
    158 H76        13.9840    0.7540   -0.4160 hx        1 MOL      0.088967
    159 H77        16.5890   -0.6370   -0.4020 hn        1 MOL      0.315792
    160 H78        15.9650    0.3770   -1.6020 hn        1 MOL      0.315792
    161 H79        16.2910    0.8510   -0.0020 hn        1 MOL      0.315792
    162 N14         9.7540   -2.7050    0.2260 n         1 MOL     -0.303177
    163 C49         9.4420   -3.4660    1.4830 c3        1 MOL      0.124985
    164 C50         7.8950   -3.5980    1.6910 c         1 MOL      0.388839
    165 O22         7.3730   -3.1010    2.6970 o         1 MOL     -0.528552
    166 C51        10.1690   -4.8280    1.4130 c3        1 MOL      0.114472
    167 C52        11.6660   -4.6420    1.5520 c3        1 MOL     -0.288099
    168 C53        12.4570   -5.8700    1.6900 c         1 MOL      0.750986
    169 O23        11.9440   -7.0270    1.6370 o         1 MOL     -0.698306
    170 O24        13.6710   -5.7130    1.9110 o         1 MOL     -0.698306
    171 H80         9.8690   -3.2480   -0.6160 hn        1 MOL      0.264754
    172 H81         9.8140   -2.9500    2.3690 h1        1 MOL      0.058644
    173 H82         9.9560   -5.2510    0.4310 hc        1 MOL     -0.001339
    174 H83         9.7720   -5.5860    2.0860 hc        1 MOL     -0.001339
    175 H84        11.8660   -3.9540    2.3660 hc        1 MOL      0.049501
    176 H85        11.9860   -4.1840    0.6180 hc        1 MOL      0.049501
    177 N15         7.1020   -4.1970    0.8130 n         1 MOL     -0.366115
    178 C54         7.3950   -4.9400   -0.3840 c3        1 MOL     -0.007246
    179 H86         6.5190   -5.5190   -0.6750 h1        1 MOL      0.039303
    180 H87         7.6570   -4.2500   -1.1860 h1        1 MOL      0.039303
    181 H88         8.2310   -5.6150   -0.1980 h1        1 MOL      0.039303
    182 H89         6.2160   -4.3520    1.2660 hn        1 MOL      0.295434
    183 Ca1        -7.7940   -4.4210    0.4410 Ca        1 MOL      1.753148
    184 O25        -7.3590   -5.2610    3.0330 oh        1 MOL     -0.930622
    185 H90        -6.6930   -4.8670    3.5990 ho        1 MOL      0.448714
    186 H91        -7.4990   -6.1410    3.4080 ho        1 MOL      0.448714
    187 O26        -6.3830   -3.6960   -1.7810 oh        1 MOL     -0.930622
    188 H92        -5.8570   -4.2030   -2.3840 ho        1 MOL      0.448714
    189 H93        -6.1230   -2.7860   -1.9260 ho        1 MOL      0.448714
    190 O27        -9.4270   -5.2170   -1.4110 oh        1 MOL     -0.930622
    191 H94        -9.8920   -6.0540   -1.3010 ho        1 MOL      0.448714
    192 H95        -9.3340   -5.1120   -2.3600 ho        1 MOL      0.448714
@<TRIPOS>BOND
     1    1    2 1   
     2    1    4 1   
     3    1    5 1   
     4    1    6 1   
     5    2    3 2   
     6    2    7 1   
     7    7    8 1   
     8    7   15 1   
     9    8    9 1   
    10    8   11 1   
    11    8   16 1   
    12    9   10 2   
    13    9   19 1   
    14   11   12 1   
    15   11   17 1   
    16   11   18 1   
    17   12   13 1   
    18   12   14 1   
    19   19   20 1   
    20   19   28 1   
    21   20   21 1   
    22   20   23 1   
    23   20   29 1   
    24   21   22 2   
    25   21   41 1   
    26   23   24 1   
    27   23   30 1   
    28   23   31 1   
    29   24   25 1   
    30   24   32 1   
    31   24   33 1   
    32   25   26 1   
    33   25   34 1   
    34   25   35 1   
    35   26   27 1   
    36   26   36 1   
    37   26   37 1   
    38   27   38 1   
    39   27   39 1   
    40   27   40 1   
    41   41   42 1   
    42   41   49 1   
    43   42   43 1   
    44   42   45 1   
    45   42   50 1   
    46   43   44 2   
    47   43   53 1   
    48   45   46 1   
    49   45   51 1   
    50   45   52 1   
    51   46   47 1   
    52   46   48 1   
    53   53   54 1   
    54   53   57 1   
    55   54   55 1   
    56   54   58 1   
    57   54   59 1   
    58   55   56 2   
    59   55   60 1   
    60   60   61 1   
    61   60   68 1   
    62   61   62 1   
    63   61   64 1   
    64   61   69 1   
    65   62   63 2   
    66   62   72 1   
    67   64   65 1   
    68   64   70 1   
    69   64   71 1   
    70   65   66 1   
    71   65   67 1   
    72   72   73 1   
    73   72   76 1   
    74   73   74 1   
    75   73   77 1   
    76   73   78 1   
    77   74   75 2   
    78   74   79 1   
    79   79   80 1   
    80   79   86 1   
    81   80   81 1   
    82   80   83 1   
    83   80   87 1   
    84   81   82 2   
    85   81   93 1   
    86   83   84 1   
    87   83   85 1   
    88   83   88 1   
    89   84   90 1   
    90   84   91 1   
    91   84   92 1   
    92   85   89 1   
    93   93   94 1   
    94   93  101 1   
    95   94   95 1   
    96   94   97 1   
    97   94  102 1   
    98   95   96 2   
    99   95  112 1   
   100   97   98 1   
   101   97   99 1   
   102   97  103 1   
   103   98  100 1   
   104   98  104 1   
   105   98  105 1   
   106   99  106 1   
   107   99  107 1   
   108   99  108 1   
   109  100  109 1   
   110  100  110 1   
   111  100  111 1   
   112  112  113 1   
   113  112  119 1   
   114  113  114 1   
   115  113  116 1   
   116  113  120 1   
   117  114  115 2   
   118  114  126 1   
   119  116  117 1   
   120  116  118 1   
   121  116  121 1   
   122  117  123 1   
   123  117  124 1   
   124  117  125 1   
   125  118  122 1   
   126  126  127 1   
   127  126  133 1   
   128  127  128 1   
   129  127  130 1   
   130  127  134 1   
   131  128  129 2   
   132  128  140 1   
   133  130  131 1   
   134  130  132 1   
   135  130  135 1   
   136  131  137 1   
   137  131  138 1   
   138  131  139 1   
   139  132  136 1   
   140  140  141 1   
   141  140  149 1   
   142  141  142 1   
   143  141  144 1   
   144  141  150 1   
   145  142  143 2   
   146  142  162 1   
   147  144  145 1   
   148  144  151 1   
   149  144  152 1   
   150  145  146 1   
   151  145  153 1   
   152  145  154 1   
   153  146  147 1   
   154  146  155 1   
   155  146  156 1   
   156  147  148 1   
   157  147  157 1   
   158  147  158 1   
   159  148  159 1   
   160  148  160 1   
   161  148  161 1   
   162  162  163 1   
   163  162  171 1   
   164  163  164 1   
   165  163  166 1   
   166  163  172 1   
   167  164  165 2   
   168  164  177 1   
   169  166  167 1   
   170  166  173 1   
   171  166  174 1   
   172  167  168 1   
   173  167  175 1   
   174  167  176 1   
   175  168  169 1   
   176  168  170 1   
   177  177  178 1   
   178  177  182 1   
   179  178  179 1   
   180  178  180 1   
   181  178  181 1   
   182  184  185 1   
   183  184  186 1   
   184  187  188 1   
   185  187  189 1   
   186  190  191 1   
   187  190  192 1   
@<TRIPOS>SUBSTRUCTURE
     1 MOL         1 TEMP              0 ****  ****    0 ROOT
