@<TRIPOS>MOLECULE
MOL
  192   187     1     0     0
SMALL
resp


@<TRIPOS>ATOM
      1 C1          6.6850    1.2440    5.8870 c3        1 MOL     -0.369644
      2 C2          5.9670    0.9850    4.5130 c         1 MOL      0.790625
      3 O1          5.7110    1.8830    3.7730 o         1 MOL     -0.607878
      4 H1          5.9390    1.4590    6.6520 hc        1 MOL      0.096878
      5 H2          7.2530    0.3590    6.1730 hc        1 MOL      0.096878
      6 H3          7.3610    2.0950    5.7900 hc        1 MOL      0.096878
      7 N1          5.5830   -0.2470    4.1260 n         1 MOL     -0.669885
      8 C3          5.1940   -0.6740    2.7880 c3        1 MOL      0.447991
      9 C4          3.7660   -0.3260    2.3420 c         1 MOL      0.271309
     10 O2          3.4670   -0.6630    1.1950 o         1 MOL     -0.448175
     11 C5          5.4330   -2.1560    2.5440 c3        1 MOL     -0.404874
     12 C6          6.9550   -2.6180    2.5680 c         1 MOL      0.764995
     13 O3          7.5130   -2.8050    3.7000 o         1 MOL     -0.720985
     14 O4          7.5260   -2.7600    1.5070 o         1 MOL     -0.720985
     15 H4          5.6100   -0.9590    4.8430 hn        1 MOL      0.271595
     16 H5          5.8770   -0.0780    2.1720 h1        1 MOL      0.084681
     17 H6          5.0900   -2.2850    1.5180 hc        1 MOL      0.026131
     18 H7          4.8950   -2.7290    3.2930 hc        1 MOL      0.026131
     19 N2          3.0430    0.5360    3.0810 n         1 MOL     -0.056763
     20 C7          1.5740    0.6350    3.0310 c3        1 MOL      0.088278
     21 C8          0.9830    2.0480    2.6320 c         1 MOL      0.334121
     22 O5          1.4080    3.0760    3.0720 o         1 MOL     -0.459160
     23 C9          0.9930    0.1760    4.4240 c3        1 MOL     -0.274228
     24 C10         1.4570   -1.2070    4.9860 c3        1 MOL     -0.138714
     25 C11         0.7520   -2.2730    4.2520 c3        1 MOL      0.332656
     26 C12         0.7460   -3.5960    5.0060 c3        1 MOL     -0.124488
     27 N3          0.4560   -4.7640    4.1230 n4        1 MOL     -0.233895
     28 H8          3.5120    1.0270    3.8340 hn        1 MOL      0.186189
     29 H9          1.2250    0.0130    2.2080 h1        1 MOL     -0.137517
     30 H10        -0.1000    0.1380    4.4170 hc        1 MOL      0.128417
     31 H11         1.2950    0.9260    5.1520 hc        1 MOL      0.128417
     32 H12         1.1520   -1.3370    6.0230 hc        1 MOL      0.026202
     33 H13         2.5300   -1.3430    4.8430 hc        1 MOL      0.026202
     34 H14         1.2510   -2.3520    3.2940 hc        1 MOL     -0.020128
     35 H15        -0.2700   -1.9730    4.0510 hc        1 MOL     -0.020128
     36 H16        -0.0390   -3.4630    5.7500 hx        1 MOL      0.099565
     37 H17         1.6810   -3.6550    5.5690 hx        1 MOL      0.099565
     38 H18         0.3480   -5.6290    4.6470 hn        1 MOL      0.287858
     39 H19        -0.3590   -4.7060    3.5290 hn        1 MOL      0.287858
     40 H20         1.1020   -4.9180    3.3670 hn        1 MOL      0.287858
     41 N4         -0.0170    2.1260    1.7500 n         1 MOL     -0.063544
     42 C13        -0.6600    1.0860    0.8930 c3        1 MOL     -0.335455
     43 C14        -1.2830   -0.0820    1.6280 c         1 MOL      0.813117
     44 O6         -0.8310   -1.2410    1.6840 o         1 MOL     -0.678434
     45 C15         0.2900    0.7250   -0.2510 c3        1 MOL     -0.905410
     46 C16         0.3310    1.8200   -1.3730 c         1 MOL      0.780423
     47 O7         -0.3870    2.8450   -1.3650 o         1 MOL     -0.685986
     48 O8          1.0240    1.6850   -2.4040 o         1 MOL     -0.685986
     49 H21        -0.3350    3.0620    1.5240 hn        1 MOL      0.119907
     50 H22        -1.5370    1.5740    0.4920 h1        1 MOL      0.134333
     51 H23        -0.1760   -0.1720   -0.6650 hc        1 MOL      0.373213
     52 H24         1.3180    0.4960    0.0050 hc        1 MOL      0.373213
     53 N5         -2.3570    0.1270    2.3680 n         1 MOL     -0.530114
     54 C17        -3.3510    1.2070    2.1600 c3        1 MOL     -0.018427
     55 C18        -4.6340    1.1430    3.0530 c         1 MOL      0.608794
     56 O9         -4.6660    0.2770    3.9540 o         1 MOL     -0.578304
     57 H25        -2.6120   -0.6490    2.9490 hn        1 MOL      0.332567
     58 H26        -3.6600    1.4640    1.1390 h1        1 MOL      0.063604
     59 H27        -2.8260    2.1370    2.3710 h1        1 MOL      0.063604
     60 N6         -5.5930    1.9860    2.9240 n         1 MOL     -0.536179
     61 C19        -5.6320    3.1690    2.0050 c3        1 MOL      0.137745
     62 C20        -6.3630    2.7720    0.7190 c         1 MOL      0.492731
     63 O10        -7.2130    1.9480    0.6890 o         1 MOL     -0.405126
     64 C21        -6.2990    4.3740    2.6800 c3        1 MOL     -0.074437
     65 C22        -7.4810    3.8400    3.4980 c         1 MOL      0.649090
     66 O11        -7.2450    3.6030    4.7420 o         1 MOL     -0.631218
     67 O12        -8.5860    3.6770    2.9080 o         1 MOL     -0.631218
     68 H28        -6.2990    1.9030    3.6390 hn        1 MOL      0.338950
     69 H29        -4.6310    3.5190    1.7290 h1        1 MOL     -0.000509
     70 H30        -6.5530    5.1380    1.9370 hc        1 MOL     -0.013707
     71 H31        -5.5020    4.7540    3.3310 hc        1 MOL     -0.013707
     72 N7         -6.1210    3.5740   -0.3180 n         1 MOL     -0.260424
     73 C23        -6.6630    3.3930   -1.6400 c3        1 MOL     -0.260017
     74 C24        -6.2620    2.1060   -2.3760 c         1 MOL      0.442659
     75 O13        -7.1400    1.4350   -2.9890 o         1 MOL     -0.509700
     76 H32        -5.3220    4.1560   -0.1290 hn        1 MOL      0.157454
     77 H33        -6.2690    4.1440   -2.3300 h1        1 MOL      0.134477
     78 H34        -7.7470    3.3650   -1.6730 h1        1 MOL      0.134477
     79 N8         -5.0510    1.5690   -2.0170 n         1 MOL     -0.290174
     80 C25        -4.5860    0.2160   -2.3230 c3        1 MOL     -0.000099
     81 C26        -4.9960   -0.8350   -1.2790 c         1 MOL      0.455620
     82 O14        -4.7920   -0.6420   -0.0850 o         1 MOL     -0.532873
     83 C27        -3.1060    0.1490   -2.6540 c3        1 MOL      0.191276
     84 C28        -2.6320    1.2080   -3.6020 c3        1 MOL     -0.312413
     85 O15        -2.9770   -1.0930   -3.3010 oh        1 MOL     -0.580775
     86 H35        -4.4970    2.1560   -1.4100 hn        1 MOL      0.220819
     87 H36        -5.1090    0.0110   -3.2570 h1        1 MOL      0.085482
     88 H37        -2.3670    0.0300   -1.8640 h1        1 MOL      0.118174
     89 H38        -2.1950   -1.3990   -2.8430 ho        1 MOL      0.349775
     90 H39        -1.5580    1.0680   -3.7320 hc        1 MOL      0.084219
     91 H40        -2.9620    1.0460   -4.6340 hc        1 MOL      0.084219
     92 H41        -2.7900    2.2190   -3.2210 hc        1 MOL      0.084219
     93 N9         -5.4820   -1.9550   -1.6870 n         1 MOL     -0.296637
     94 C29        -5.8470   -3.0130   -0.7830 c3        1 MOL     -0.016561
     95 C30        -4.6990   -4.0290   -0.3620 c         1 MOL      0.468470
     96 O16        -4.9260   -5.0520    0.3260 o         1 MOL     -0.494544
     97 C31        -7.1450   -3.6960   -1.3680 c3        1 MOL      0.311897
     98 C32        -7.9380   -4.5270   -0.3300 c3        1 MOL     -0.025302
     99 C33        -6.9470   -4.4650   -2.6510 c3        1 MOL     -0.313039
    100 C34        -8.1270   -4.0150    1.0880 c3        1 MOL     -0.233953
    101 H42        -5.7030   -2.0810   -2.6680 hn        1 MOL      0.248491
    102 H43        -6.1840   -2.6230    0.1830 h1        1 MOL      0.090710
    103 H44        -7.7700   -2.8670   -1.6990 hc        1 MOL     -0.030657
    104 H45        -7.3760   -5.4640   -0.2800 hc        1 MOL      0.010334
    105 H46        -8.9490   -4.7390   -0.6960 hc        1 MOL      0.010334
    106 H47        -6.3450   -3.9190   -3.3770 hc        1 MOL      0.062880
    107 H48        -6.3510   -5.3410   -2.3650 hc        1 MOL      0.062880
    108 H49        -7.9200   -4.7720   -3.0390 hc        1 MOL      0.062880
    109 H50        -8.5580   -3.0150    0.9520 hc        1 MOL      0.061831
    110 H51        -8.9260   -4.6190    1.5300 hc        1 MOL      0.061831
    111 H52        -7.2010   -3.9810    1.6610 hc        1 MOL      0.061831
    112 N10        -3.5010   -3.7630   -0.9290 n         1 MOL     -0.252816
    113 C35        -2.1230   -4.3780   -0.8430 c3        1 MOL      0.015651
    114 C36        -1.0610   -3.3300   -0.7430 c         1 MOL      0.413186
    115 O17        -1.2060   -2.3010   -1.4240 o         1 MOL     -0.357766
    116 C37        -1.9220   -5.4250   -1.9380 c3        1 MOL      0.251608
    117 C38        -1.9550   -4.8430   -3.3470 c3        1 MOL     -0.410607
    118 O18        -2.9650   -6.4630   -1.8100 oh        1 MOL     -0.598541
    119 H53        -3.5880   -3.0560   -1.6440 hn        1 MOL      0.131672
    120 H54        -2.1400   -4.9730    0.0620 h1        1 MOL      0.048884
    121 H55        -0.9560   -5.8960   -1.7780 h1        1 MOL      0.004240
    122 H56        -2.6520   -7.1680   -2.3810 ho        1 MOL      0.388899
    123 H57        -2.9800   -4.5200   -3.5700 hc        1 MOL      0.123508
    124 H58        -1.3130   -3.9710   -3.3530 hc        1 MOL      0.123508
    125 H59        -1.6050   -5.5830   -4.0680 hc        1 MOL      0.123508
    126 N11         0.0460   -3.6600   -0.0180 n         1 MOL     -0.385336
    127 C39         1.3660   -2.9660   -0.0700 c3        1 MOL      0.003020
    128 C40         1.8240   -2.5730   -1.4540 c         1 MOL      0.229300
    129 O19         1.3750   -3.1830   -2.4600 o         1 MOL     -0.471468
    130 C41         2.4920   -3.9360    0.4070 c3        1 MOL      0.230243
    131 C42         2.5700   -5.2290   -0.3820 c3        1 MOL     -0.213666
    132 O20         2.3250   -4.3240    1.7560 oh        1 MOL     -0.733510
    133 H60        -0.0120   -4.6230    0.2870 hn        1 MOL      0.296857
    134 H61         1.4180   -2.0610    0.5280 h1        1 MOL      0.216849
    135 H62         3.4430   -3.4010    0.2970 h1        1 MOL      0.090188
    136 H63         3.1420   -4.6020    2.1680 ho        1 MOL      0.442498
    137 H64         1.5940   -5.7080   -0.4990 hc        1 MOL      0.067019
    138 H65         2.9370   -4.9820   -1.3750 hc        1 MOL      0.067019
    139 H66         3.3050   -5.9970   -0.1360 hc        1 MOL      0.067019
    140 N12         2.7150   -1.5780   -1.4730 n         1 MOL     -0.188534
    141 C43         3.4820   -1.0660   -2.6360 c3        1 MOL     -0.095614
    142 C44         3.8960    0.3840   -2.4970 c         1 MOL      0.669707
    143 O21         4.1000    1.0750   -3.5020 o         1 MOL     -0.637850
    144 C45         4.5990   -2.0670   -2.9200 c3        1 MOL     -0.031174
    145 C46         5.3720   -1.6520   -4.1700 c3        1 MOL      0.041186
    146 C47         6.3810   -2.6670   -4.6470 c3        1 MOL     -0.239782
    147 C48         7.5990   -2.9270   -3.7550 c3        1 MOL      0.122803
    148 N13         8.5210   -3.7700   -4.5030 n4        1 MOL     -0.402201
    149 H67         3.0250   -1.2530   -0.5640 hn        1 MOL      0.244430
    150 H68         2.8580   -1.1330   -3.5140 h1        1 MOL      0.119756
    151 H69         4.1070   -3.0200   -3.1190 hc        1 MOL      0.030270
    152 H70         5.2530   -2.2170   -2.0600 hc        1 MOL      0.030270
    153 H71         5.8390   -0.6770   -4.0360 hc        1 MOL      0.042224
    154 H72         4.7280   -1.5050   -5.0390 hc        1 MOL      0.042224
    155 H73         6.6800   -2.3410   -5.6440 hc        1 MOL      0.073829
    156 H74         5.8700   -3.6100   -4.7960 hc        1 MOL      0.073829
    157 H75         7.2900   -3.3790   -2.8090 hx        1 MOL      0.089308
    158 H76         8.1110   -1.9800   -3.5970 hx        1 MOL      0.089308
    159 H77         9.3740   -3.9530   -3.9930 hn        1 MOL      0.335107
    160 H78         8.1480   -4.6910   -4.6620 hn        1 MOL      0.335107
    161 H79         8.7020   -3.3140   -5.3860 hn        1 MOL      0.335107
    162 N14         4.0170    0.9240   -1.3030 n         1 MOL     -0.265895
    163 C49         4.3920    2.3620   -1.1350 c3        1 MOL     -0.266027
    164 C50         5.8900    2.5380   -0.9840 c         1 MOL      0.445807
    165 O22         6.5530    1.8200   -0.2180 o         1 MOL     -0.506668
    166 C51         3.6890    2.9280    0.1220 c3        1 MOL      0.608557
    167 C52         3.9190    4.3410    0.5780 c3        1 MOL     -0.150472
    168 C53         3.5520    5.2990   -0.5020 c         1 MOL      0.404132
    169 O23         2.4070    5.2920   -0.9660 o         1 MOL     -0.635227
    170 O24         4.4620    5.9600   -1.0590 o         1 MOL     -0.635227
    171 H80         3.8580    0.2880   -0.5220 hn        1 MOL      0.095196
    172 H81         4.0980    2.9670   -1.9900 h1        1 MOL      0.181124
    173 H82         4.0440    2.2980    0.9340 hc        1 MOL     -0.169080
    174 H83         2.6210    2.7170    0.0760 hc        1 MOL     -0.169080
    175 H84         4.9590    4.5260    0.8570 hc        1 MOL      0.060080
    176 H85         3.2720    4.4490    1.4450 hc        1 MOL      0.060080
    177 N15         6.4100    3.5900   -1.5850 n         1 MOL     -0.227583
    178 C54         7.8640    3.7560   -1.5390 c3        1 MOL     -0.307840
    179 H86         8.2010    3.7220   -0.5030 h1        1 MOL      0.119968
    180 H87         8.3390    2.9520   -2.1010 h1        1 MOL      0.119968
    181 H88         8.1360    4.7150   -1.9790 h1        1 MOL      0.119968
    182 H89         5.9030    4.2160   -2.2070 hn        1 MOL      0.306574
    183 Ca1         0.0200    5.5400   -1.7210 Ca        1 MOL      1.589959
    184 O25        -1.9180    4.7090   -3.4890 oh        1 MOL     -0.843821
    185 H90        -2.7640    5.1560   -3.4940 ho        1 MOL      0.414908
    186 H91        -1.9140    4.1900   -4.2940 ho        1 MOL      0.414908
    187 O26         1.1770    3.9060   -3.6200 oh        1 MOL     -0.843821
    188 H92         0.6470    3.6430   -4.3710 ho        1 MOL      0.414908
    189 H93         1.3240    3.0970   -3.1330 ho        1 MOL      0.414908
    190 O27         0.5850    6.7680   -4.1580 oh        1 MOL     -0.843821
    191 H94         1.2270    7.4470   -4.3590 ho        1 MOL      0.414908
    192 H95        -0.0970    6.8800   -4.8330 ho        1 MOL      0.414908
@<TRIPOS>BOND
     1    1    2 1   
     2    1    4 1   
     3    1    5 1   
     4    1    6 1   
     5    2    3 2   
     6    2    7 1   
     7    7    8 1   
     8    7   15 1   
     9    8    9 1   
    10    8   11 1   
    11    8   16 1   
    12    9   10 2   
    13    9   19 1   
    14   11   12 1   
    15   11   17 1   
    16   11   18 1   
    17   12   13 1   
    18   12   14 1   
    19   19   20 1   
    20   19   28 1   
    21   20   21 1   
    22   20   23 1   
    23   20   29 1   
    24   21   22 2   
    25   21   41 1   
    26   23   24 1   
    27   23   30 1   
    28   23   31 1   
    29   24   25 1   
    30   24   32 1   
    31   24   33 1   
    32   25   26 1   
    33   25   34 1   
    34   25   35 1   
    35   26   27 1   
    36   26   36 1   
    37   26   37 1   
    38   27   38 1   
    39   27   39 1   
    40   27   40 1   
    41   41   42 1   
    42   41   49 1   
    43   42   43 1   
    44   42   45 1   
    45   42   50 1   
    46   43   44 2   
    47   43   53 1   
    48   45   46 1   
    49   45   51 1   
    50   45   52 1   
    51   46   47 1   
    52   46   48 1   
    53   53   54 1   
    54   53   57 1   
    55   54   55 1   
    56   54   58 1   
    57   54   59 1   
    58   55   56 2   
    59   55   60 1   
    60   60   61 1   
    61   60   68 1   
    62   61   62 1   
    63   61   64 1   
    64   61   69 1   
    65   62   63 2   
    66   62   72 1   
    67   64   65 1   
    68   64   70 1   
    69   64   71 1   
    70   65   66 1   
    71   65   67 1   
    72   72   73 1   
    73   72   76 1   
    74   73   74 1   
    75   73   77 1   
    76   73   78 1   
    77   74   75 2   
    78   74   79 1   
    79   79   80 1   
    80   79   86 1   
    81   80   81 1   
    82   80   83 1   
    83   80   87 1   
    84   81   82 2   
    85   81   93 1   
    86   83   84 1   
    87   83   85 1   
    88   83   88 1   
    89   84   90 1   
    90   84   91 1   
    91   84   92 1   
    92   85   89 1   
    93   93   94 1   
    94   93  101 1   
    95   94   95 1   
    96   94   97 1   
    97   94  102 1   
    98   95   96 2   
    99   95  112 1   
   100   97   98 1   
   101   97   99 1   
   102   97  103 1   
   103   98  100 1   
   104   98  104 1   
   105   98  105 1   
   106   99  106 1   
   107   99  107 1   
   108   99  108 1   
   109  100  109 1   
   110  100  110 1   
   111  100  111 1   
   112  112  113 1   
   113  112  119 1   
   114  113  114 1   
   115  113  116 1   
   116  113  120 1   
   117  114  115 2   
   118  114  126 1   
   119  116  117 1   
   120  116  118 1   
   121  116  121 1   
   122  117  123 1   
   123  117  124 1   
   124  117  125 1   
   125  118  122 1   
   126  126  127 1   
   127  126  133 1   
   128  127  128 1   
   129  127  130 1   
   130  127  134 1   
   131  128  129 2   
   132  128  140 1   
   133  130  131 1   
   134  130  132 1   
   135  130  135 1   
   136  131  137 1   
   137  131  138 1   
   138  131  139 1   
   139  132  136 1   
   140  140  141 1   
   141  140  149 1   
   142  141  142 1   
   143  141  144 1   
   144  141  150 1   
   145  142  143 2   
   146  142  162 1   
   147  144  145 1   
   148  144  151 1   
   149  144  152 1   
   150  145  146 1   
   151  145  153 1   
   152  145  154 1   
   153  146  147 1   
   154  146  155 1   
   155  146  156 1   
   156  147  148 1   
   157  147  157 1   
   158  147  158 1   
   159  148  159 1   
   160  148  160 1   
   161  148  161 1   
   162  162  163 1   
   163  162  171 1   
   164  163  164 1   
   165  163  166 1   
   166  163  172 1   
   167  164  165 2   
   168  164  177 1   
   169  166  167 1   
   170  166  173 1   
   171  166  174 1   
   172  167  168 1   
   173  167  175 1   
   174  167  176 1   
   175  168  169 1   
   176  168  170 1   
   177  177  178 1   
   178  177  182 1   
   179  178  179 1   
   180  178  180 1   
   181  178  181 1   
   182  184  185 1   
   183  184  186 1   
   184  187  188 1   
   185  187  189 1   
   186  190  191 1   
   187  190  192 1   
@<TRIPOS>SUBSTRUCTURE
     1 MOL         1 TEMP              0 ****  ****    0 ROOT
