@<TRIPOS>MOLECULE
MOL
  182   178     1     0     0
SMALL
resp


@<TRIPOS>ATOM
      1 C1          0.6990   -4.1050    5.8200 c3        1 MOL     -0.471976
      2 C2          0.9080   -3.9700    4.2760 c         1 MOL      0.749684
      3 O1         -0.0690   -4.0770    3.4960 o         1 MOL     -0.608254
      4 H1          1.6670   -4.1110    6.3190 hc        1 MOL      0.140817
      5 H2          0.1080   -3.2630    6.1830 hc        1 MOL      0.140817
      6 H3          0.1740   -5.0370    6.0360 hc        1 MOL      0.140817
      7 N1          2.1010   -3.5430    3.8090 n         1 MOL     -0.655190
      8 C3          2.3480   -3.2210    2.3950 c3        1 MOL      0.190350
      9 C4          2.3720   -4.4780    1.4770 c         1 MOL      0.440752
     10 O2          2.7560   -5.5960    1.8850 o         1 MOL     -0.538306
     11 C5          3.5580   -2.1960    2.3770 c3        1 MOL     -0.329044
     12 C6          3.6560   -1.3790    1.1200 c         1 MOL      0.623691
     13 O3          4.0440   -0.1750    1.1370 o         1 MOL     -0.715182
     14 O4          3.3350   -1.8640    0.0390 o         1 MOL     -0.715182
     15 H4          2.8670   -3.3810    4.4460 hn        1 MOL      0.344522
     16 H5          1.4690   -2.6350    2.0980 h1        1 MOL      0.034564
     17 H6          4.4690   -2.7800    2.5540 hc        1 MOL      0.128851
     18 H7          3.4280   -1.5670    3.2560 hc        1 MOL      0.128851
     19 N2          2.1390   -4.2830    0.1880 n         1 MOL     -0.223555
     20 C7          2.2660   -5.2600   -0.9190 c3        1 MOL     -0.055445
     21 C8          3.5710   -5.0180   -1.7650 c         1 MOL      0.474938
     22 O5          4.0410   -5.9610   -2.3940 o         1 MOL     -0.547460
     23 C9          1.0140   -5.1570   -1.7760 c3        1 MOL      0.072289
     24 C10        -0.2080   -5.9530   -1.2400 c3        1 MOL      0.003981
     25 C11        -1.3640   -6.0000   -2.2490 c3        1 MOL      0.123885
     26 C12        -2.4550   -6.8650   -1.7040 c3        1 MOL      0.038447
     27 N3         -3.5050   -7.2130   -2.7340 n4        1 MOL     -0.263903
     28 H8          2.0290   -3.3150   -0.0740 hn        1 MOL      0.296159
     29 H9          2.4450   -6.2550   -0.5080 h1        1 MOL      0.108984
     30 H10         1.2060   -5.5390   -2.7880 hc        1 MOL     -0.039717
     31 H11         0.7130   -4.1180   -1.8950 hc        1 MOL     -0.039717
     32 H12        -0.6470   -5.4950   -0.3480 hc        1 MOL      0.004896
     33 H13         0.0530   -6.9820   -0.9960 hc        1 MOL      0.004896
     34 H14        -1.0420   -6.4200   -3.2020 hc        1 MOL     -0.014448
     35 H15        -1.8260   -5.0260   -2.3880 hc        1 MOL     -0.014448
     36 H16        -2.9450   -6.3020   -0.9040 hx        1 MOL      0.076515
     37 H17        -2.0190   -7.7720   -1.3000 hx        1 MOL      0.076515
     38 H18        -4.3230   -7.6810   -2.3570 hn        1 MOL      0.254610
     39 H19        -3.8340   -6.3740   -3.1890 hn        1 MOL      0.254610
     40 H20        -3.0780   -7.7770   -3.4630 hn        1 MOL      0.254610
     41 N4          4.0910   -3.7820   -1.8040 n         1 MOL     -0.147152
     42 C13         5.2800   -3.4460   -2.5690 c3        1 MOL      0.178832
     43 C14         6.4840   -3.1240   -1.6750 c         1 MOL      0.336127
     44 O6          7.6430   -3.4000   -2.0250 o         1 MOL     -0.512866
     45 C15         4.9910   -2.3810   -3.5820 c3        1 MOL     -0.466682
     46 C16         4.3260   -1.2260   -2.9960 c         1 MOL      0.972973
     47 O7          4.9370   -0.4580   -2.2370 o         1 MOL     -0.803215
     48 O8          3.1530   -0.9750   -3.2340 o         1 MOL     -0.803215
     49 H21         3.5620   -3.0410   -1.3670 hn        1 MOL     -0.015632
     50 H22         5.6240   -4.3610   -3.0620 h1        1 MOL      0.082049
     51 H23         4.3200   -2.8110   -4.3320 hc        1 MOL      0.121266
     52 H24         5.8850   -1.9040   -3.9650 hc        1 MOL      0.121266
     53 N5          6.1550   -2.7360   -0.4540 n         1 MOL     -0.121266
     54 C17         7.1400   -2.3510    0.6000 c3        1 MOL     -0.110521
     55 C18         7.4150   -0.8810    0.8740 c         1 MOL      0.622217
     56 O9          8.0120   -0.6840    1.9380 o         1 MOL     -0.581984
     57 H25         5.1750   -2.5830   -0.2730 hn        1 MOL      0.086156
     58 H26         8.1010   -2.8410    0.4330 h1        1 MOL      0.082838
     59 H27         6.6670   -2.8090    1.4710 h1        1 MOL      0.082838
     60 N6          6.9050    0.0280    0.1000 n         1 MOL     -0.301672
     61 C19         7.2100    1.4420    0.3620 c3        1 MOL     -0.054857
     62 C20         6.0740    2.4440    0.1900 c         1 MOL      0.645702
     63 O10         4.9930    2.0960   -0.3900 o         1 MOL     -0.459743
     64 C21         8.3250    1.7300   -0.6810 c3        1 MOL     -0.501177
     65 C22         9.6590    1.0600   -0.4580 c         1 MOL      0.781039
     66 N7         10.3060    1.5280    0.5640 n         1 MOL     -0.795940
     67 O11        10.2010    0.3060   -1.2200 o         1 MOL     -0.559581
     68 H28         6.2500   -0.1470   -0.6470 hn        1 MOL      0.315208
     69 H29         7.5740    1.4860    1.3920 h1        1 MOL      0.073277
     70 H30         8.6330    2.7780   -0.7430 hc        1 MOL      0.132234
     71 H31         7.8770    1.4180   -1.6240 hc        1 MOL      0.132234
     72 H32         9.8920    2.2020    1.1870 hn        1 MOL      0.362434
     73 H33        11.2330    1.1670    0.6930 hn        1 MOL      0.362434
     74 N8          6.3510    3.6730    0.6640 n         1 MOL     -0.498567
     75 C23         5.4250    4.8260    0.4320 c3        1 MOL      0.003448
     76 C24         4.0080    4.6860    0.9750 c         1 MOL      0.539634
     77 O12         3.8340    4.3490    2.1620 o         1 MOL     -0.519808
     78 H34         7.0830    3.8200    1.3460 hn        1 MOL      0.334535
     79 H35         5.3710    4.8000   -0.6550 h1        1 MOL      0.062623
     80 H36         5.8620    5.8110    0.5890 h1        1 MOL      0.062623
     81 N9          2.9880    4.8770    0.1940 n         1 MOL     -0.500677
     82 C25         1.5570    4.8110    0.6310 c3        1 MOL      0.055527
     83 C26         1.4000    3.2870    0.9970 c         1 MOL      0.591586
     84 O13         2.0920    2.4570    0.4170 o         1 MOL     -0.639416
     85 C27         0.4690    5.2480   -0.4030 c3        1 MOL     -0.175527
     86 C28         0.5600    6.7130   -0.6970 ca        1 MOL      0.160018
     87 C29         0.6470    7.6510    0.3540 ca        1 MOL     -0.209934
     88 C30         0.6340    7.1220   -2.0380 ca        1 MOL     -0.209934
     89 C31         0.5460    8.9750    0.0420 ca        1 MOL     -0.194464
     90 C32         0.6680    8.4560   -2.3080 ca        1 MOL     -0.194464
     91 C33         0.6970    9.4040   -1.2870 ca        1 MOL      0.265714
     92 O14         0.5600   10.7590   -1.5600 oh        1 MOL     -0.471969
     93 H37         3.1330    5.1900   -0.7520 hn        1 MOL      0.294936
     94 H38         1.3310    5.2870    1.5830 h1        1 MOL      0.067903
     95 H39        -0.5360    4.9650   -0.0740 hc        1 MOL      0.072150
     96 H40         0.6630    4.7240   -1.3360 hc        1 MOL      0.072150
     97 H41         0.5290    7.4050    1.4000 ha        1 MOL      0.142803
     98 H42         0.5130    6.4270   -2.8640 ha        1 MOL      0.142803
     99 H43         0.3920    9.7480    0.7810 ha        1 MOL      0.147785
    100 H44         0.6870    8.7100   -3.3590 ha        1 MOL      0.147785
    101 H45         0.5280   11.2620   -0.7430 ho        1 MOL      0.361118
    102 N10         0.4960    2.9540    1.8690 n         1 MOL     -0.552861
    103 C34         0.1070    1.6140    2.3900 c3        1 MOL      0.033680
    104 C35        -0.1640    0.4930    1.2410 c         1 MOL      0.474990
    105 O15         0.7810    0.1910    0.5150 o         1 MOL     -0.247587
    106 C36         1.1030    1.0450    3.4360 c3        1 MOL      0.255185
    107 C37         0.7750   -0.3640    4.0010 c3        1 MOL     -0.317753
    108 C38         1.4720    2.0440    4.5800 c3        1 MOL     -0.388713
    109 C39        -0.5670   -0.5080    4.7140 c3        1 MOL     -0.230498
    110 H46         0.1460    3.7330    2.4140 hn        1 MOL      0.321747
    111 H47        -0.8160    1.9110    2.8950 h1        1 MOL      0.069226
    112 H48         2.0410    0.8540    2.9230 hc        1 MOL      0.043639
    113 H49         1.6340   -0.6980    4.5880 hc        1 MOL      0.116896
    114 H50         0.7330   -1.0780    3.1760 hc        1 MOL      0.116896
    115 H51         2.1110    2.7960    4.1280 hc        1 MOL      0.102231
    116 H52         0.6380    2.5530    5.0680 hc        1 MOL      0.102231
    117 H53         2.0750    1.5270    5.3290 hc        1 MOL      0.102231
    118 H54        -0.6630    0.1530    5.5730 hc        1 MOL      0.073123
    119 H55        -1.3690   -0.0270    4.1530 hc        1 MOL      0.073123
    120 H56        -0.6700   -1.4420    5.2740 hc        1 MOL      0.073123
    121 N11        -1.3740   -0.0490    1.0940 n         1 MOL     -0.662976
    122 C40        -1.7850   -1.1220    0.1150 c3        1 MOL      0.254072
    123 C41        -3.2180   -1.0980   -0.2420 c         1 MOL      0.550579
    124 O16        -3.6120   -1.7820   -1.2070 o         1 MOL     -0.570143
    125 C42        -1.3010   -2.4570    0.6980 c3        1 MOL      0.193511
    126 O17        -1.9100   -2.6640    1.9880 oh        1 MOL     -0.642903
    127 H57        -1.9310    0.1800    1.9040 hn        1 MOL      0.316037
    128 H58        -1.3380   -1.0420   -0.8710 h1        1 MOL      0.015102
    129 H59        -0.2500   -2.2720    0.8940 h1        1 MOL     -0.028025
    130 H60        -1.4640   -3.2580   -0.0380 h1        1 MOL     -0.028025
    131 H61        -1.3190   -3.2040    2.5030 ho        1 MOL      0.442064
    132 N12        -4.1420   -0.3890    0.4620 n         1 MOL     -0.490259
    133 C43        -5.5210   -0.2240   -0.0080 c3        1 MOL     -0.004119
    134 C44        -5.6040    0.4810   -1.3960 c         1 MOL      0.674224
    135 O18        -4.7370    1.2290   -1.7730 o         1 MOL     -0.557968
    136 C45        -6.2720    0.5940    1.0310 c3        1 MOL     -0.132709
    137 H62        -3.9250    0.1080    1.3090 hn        1 MOL      0.318630
    138 H63        -5.9080   -1.2300   -0.1630 h1        1 MOL      0.120936
    139 H64        -7.2130    0.9400    0.6030 hc        1 MOL      0.056119
    140 H65        -6.3060    0.0320    1.9710 hc        1 MOL      0.056119
    141 H66        -5.7500    1.5090    1.2930 hc        1 MOL      0.056119
    142 N13        -6.7660    0.4410   -2.0780 n         1 MOL     -0.646831
    143 C46        -8.0840   -0.1180   -1.7530 c3        1 MOL      0.350924
    144 C47        -9.2870    0.7380   -2.3430 c         1 MOL      0.446390
    145 O19        -9.0970    1.3710   -3.4100 o         1 MOL     -0.533409
    146 C48        -8.1400   -1.6400   -2.1700 c3        1 MOL     -0.338137
    147 H67        -6.9040    0.9220   -2.9550 hn        1 MOL      0.322712
    148 H68        -8.2980   -0.1090   -0.6920 h1        1 MOL     -0.052435
    149 H69        -7.6850   -2.3180   -1.4490 hc        1 MOL      0.094103
    150 H70        -9.1640   -1.9500   -2.3930 hc        1 MOL      0.094103
    151 H71        -7.6770   -1.7500   -3.1520 hc        1 MOL      0.094103
    152 N14       -10.4560    0.8110   -1.6490 n         1 MOL     -0.450639
    153 C49       -10.7810    0.3260   -0.2980 c3        1 MOL     -0.187275
    154 C50       -10.2720    1.3130    0.7610 c         1 MOL      0.532710
    155 O20       -10.1530    0.9160    1.9160 o         1 MOL     -0.518063
    156 C51       -12.3220    0.1460   -0.2520 c3        1 MOL      0.106502
    157 C52       -12.7220   -0.5720    1.0580 c3        1 MOL     -0.177971
    158 C53       -14.1890   -1.0720    0.8710 c         1 MOL      0.670512
    159 O21       -14.3090   -2.2710    0.5320 o         1 MOL     -0.662628
    160 O22       -15.1030   -0.2510    1.0640 o         1 MOL     -0.662628
    161 H72       -11.1070    1.4220   -2.1270 hn        1 MOL      0.295785
    162 H73       -10.2700   -0.6140   -0.0980 h1        1 MOL      0.159682
    163 H74       -12.6730   -0.4910   -1.0690 hc        1 MOL      0.020795
    164 H75       -12.9400    1.0440   -0.2710 hc        1 MOL      0.020795
    165 H76       -12.7010    0.1360    1.8880 hc        1 MOL      0.031879
    166 H77       -12.0870   -1.4310    1.2670 hc        1 MOL      0.031879
    167 N15        -9.9190    2.5750    0.3600 n         1 MOL     -0.304809
    168 C54        -9.1660    3.5480    1.2270 c3        1 MOL     -0.205255
    169 H78        -8.1410    3.2010    1.3570 h1        1 MOL      0.103568
    170 H79        -9.1590    4.5290    0.7520 h1        1 MOL      0.103568
    171 H80        -9.6510    3.6190    2.2000 h1        1 MOL      0.103568
    172 H81       -10.2340    2.9160   -0.5360 hn        1 MOL      0.264257
    173 Ca1         2.8070    0.5390   -1.0660 Ca        1 MOL      1.778318
    174 O23         3.5490    2.3240   -3.0560 oh        1 MOL     -0.908355
    175 H82         4.3960    2.7560   -3.1360 ho        1 MOL      0.439745
    176 H83         3.1010    2.5160   -3.8810 ho        1 MOL      0.439745
    177 O24         0.6660    1.1730   -2.6000 oh        1 MOL     -0.908355
    178 H84        -0.2740    1.0570   -2.4490 ho        1 MOL      0.439745
    179 H85         0.7370    1.4180   -3.5270 ho        1 MOL      0.439745
    180 O25         1.0870   -1.8740   -1.8140 oh        1 MOL     -0.908355
    181 H86         0.3900   -2.3430   -2.2670 ho        1 MOL      0.439745
    182 H87         1.7320   -1.6670   -2.4890 ho        1 MOL      0.439745
@<TRIPOS>BOND
     1    1    2 1   
     2    1    4 1   
     3    1    5 1   
     4    1    6 1   
     5    2    3 2   
     6    2    7 1   
     7    7    8 1   
     8    7   15 1   
     9    8    9 1   
    10    8   11 1   
    11    8   16 1   
    12    9   10 2   
    13    9   19 1   
    14   11   12 1   
    15   11   17 1   
    16   11   18 1   
    17   12   13 1   
    18   12   14 1   
    19   19   20 1   
    20   19   28 1   
    21   20   21 1   
    22   20   23 1   
    23   20   29 1   
    24   21   22 2   
    25   21   41 1   
    26   23   24 1   
    27   23   30 1   
    28   23   31 1   
    29   24   25 1   
    30   24   32 1   
    31   24   33 1   
    32   25   26 1   
    33   25   34 1   
    34   25   35 1   
    35   26   27 1   
    36   26   36 1   
    37   26   37 1   
    38   27   38 1   
    39   27   39 1   
    40   27   40 1   
    41   41   42 1   
    42   41   49 1   
    43   42   43 1   
    44   42   45 1   
    45   42   50 1   
    46   43   44 2   
    47   43   53 1   
    48   45   46 1   
    49   45   51 1   
    50   45   52 1   
    51   46   47 1   
    52   46   48 1   
    53   53   54 1   
    54   53   57 1   
    55   54   55 1   
    56   54   58 1   
    57   54   59 1   
    58   55   56 2   
    59   55   60 1   
    60   60   61 1   
    61   60   68 1   
    62   61   62 1   
    63   61   64 1   
    64   61   69 1   
    65   62   63 2   
    66   62   74 1   
    67   64   65 1   
    68   64   70 1   
    69   64   71 1   
    70   65   66 1   
    71   65   67 2   
    72   66   72 1   
    73   66   73 1   
    74   74   75 1   
    75   74   78 1   
    76   75   76 1   
    77   75   79 1   
    78   75   80 1   
    79   76   77 2   
    80   76   81 1   
    81   81   82 1   
    82   81   93 1   
    83   82   83 1   
    84   82   85 1   
    85   82   94 1   
    86   83   84 2   
    87   83  102 1   
    88   85   86 1   
    89   85   95 1   
    90   85   96 1   
    91   86   87 ar  
    92   86   88 ar  
    93   87   89 ar  
    94   87   97 1   
    95   88   90 ar  
    96   88   98 1   
    97   89   91 ar  
    98   89   99 1   
    99   90   91 ar  
   100   90  100 1   
   101   91   92 1   
   102   92  101 1   
   103  102  103 1   
   104  102  110 1   
   105  103  104 1   
   106  103  106 1   
   107  103  111 1   
   108  104  105 2   
   109  104  121 1   
   110  106  107 1   
   111  106  108 1   
   112  106  112 1   
   113  107  109 1   
   114  107  113 1   
   115  107  114 1   
   116  108  115 1   
   117  108  116 1   
   118  108  117 1   
   119  109  118 1   
   120  109  119 1   
   121  109  120 1   
   122  121  122 1   
   123  121  127 1   
   124  122  123 1   
   125  122  125 1   
   126  122  128 1   
   127  123  124 2   
   128  123  132 1   
   129  125  126 1   
   130  125  129 1   
   131  125  130 1   
   132  126  131 1   
   133  132  133 1   
   134  132  137 1   
   135  133  134 1   
   136  133  136 1   
   137  133  138 1   
   138  134  135 2   
   139  134  142 1   
   140  136  139 1   
   141  136  140 1   
   142  136  141 1   
   143  142  143 1   
   144  142  147 1   
   145  143  144 1   
   146  143  146 1   
   147  143  148 1   
   148  144  145 2   
   149  144  152 1   
   150  146  149 1   
   151  146  150 1   
   152  146  151 1   
   153  152  153 1   
   154  152  161 1   
   155  153  154 1   
   156  153  156 1   
   157  153  162 1   
   158  154  155 2   
   159  154  167 1   
   160  156  157 1   
   161  156  163 1   
   162  156  164 1   
   163  157  158 1   
   164  157  165 1   
   165  157  166 1   
   166  158  159 1   
   167  158  160 1   
   168  167  168 1   
   169  167  172 1   
   170  168  169 1   
   171  168  170 1   
   172  168  171 1   
   173  174  175 1   
   174  174  176 1   
   175  177  178 1   
   176  177  179 1   
   177  180  181 1   
   178  180  182 1   
@<TRIPOS>SUBSTRUCTURE
     1 MOL         1 TEMP              0 ****  ****    0 ROOT
