@<TRIPOS>MOLECULE
MOL
  179   176     1     0     0
SMALL
resp


@<TRIPOS>ATOM
      1 C1          4.0130    1.8870    5.8010 c3        1 MOL     -0.269131
      2 C2          3.6030    1.7460    4.3750 c         1 MOL      0.791635
      3 O1          4.4740    1.5080    3.5620 o         1 MOL     -0.628998
      4 H1          3.6020    1.0600    6.3800 hc        1 MOL      0.061797
      5 H2          5.1000    1.8730    5.8700 hc        1 MOL      0.061797
      6 H3          3.6350    2.8300    6.1960 hc        1 MOL      0.061797
      7 N1          2.3810    2.0130    4.0800 n         1 MOL     -0.627887
      8 C3          1.7450    2.0590    2.7340 c3        1 MOL     -0.061867
      9 C4          2.1550    3.2920    1.9250 c         1 MOL      0.761407
     10 O2          1.7320    4.3410    2.2020 o         1 MOL     -0.521251
     11 C5          0.2390    1.9820    3.0500 c3        1 MOL     -0.156478
     12 C6         -0.6730    1.7080    1.8480 c         1 MOL      0.575021
     13 O3         -1.9300    1.6920    2.0270 o         1 MOL     -0.691780
     14 O4         -0.0970    1.5060    0.7180 o         1 MOL     -0.691780
     15 H4          1.7570    2.1770    4.8590 hn        1 MOL      0.324617
     16 H5          2.0340    1.1690    2.1680 h1        1 MOL      0.097141
     17 H6         -0.1240    2.9160    3.4770 hc        1 MOL      0.067291
     18 H7          0.1020    1.0900    3.6510 hc        1 MOL      0.067291
     19 N2          2.9610    3.0590    0.8660 n         1 MOL     -0.428835
     20 C7          3.5510    4.0670    0.0020 c3        1 MOL     -0.214505
     21 C8          2.5950    4.7320   -0.9690 c         1 MOL      0.628660
     22 O5          2.8970    5.7930   -1.4620 o         1 MOL     -0.567652
     23 C9          4.8030    3.3810   -0.7180 c3        1 MOL      0.148723
     24 C10         5.7860    4.4490   -1.3650 c3        1 MOL     -0.141664
     25 C11         6.9280    3.6640   -1.9910 c3        1 MOL      0.136111
     26 C12         8.0220    4.6020   -2.6370 c3        1 MOL     -0.070785
     27 N3          9.1480    4.9040   -1.7230 n4        1 MOL     -0.310541
     28 H8          3.1710    2.1220    0.5570 hn        1 MOL      0.252839
     29 H9          3.8930    4.9100    0.6030 h1        1 MOL      0.120315
     30 H10         4.3480    2.8070   -1.5280 hc        1 MOL      0.020516
     31 H11         5.3110    2.8080    0.0560 hc        1 MOL      0.020516
     32 H12         6.2040    5.0330   -0.5370 hc        1 MOL      0.043580
     33 H13         5.1780    4.9620   -2.1110 hc        1 MOL      0.043580
     34 H14         6.5510    2.9900   -2.7530 hc        1 MOL     -0.002371
     35 H15         7.3570    3.0320   -1.2130 hc        1 MOL     -0.002371
     36 H16         7.6040    5.5780   -2.8990 hx        1 MOL      0.112199
     37 H17         8.3810    4.1570   -3.5660 hx        1 MOL      0.112199
     38 H18         9.7220    4.0940   -1.5170 hn        1 MOL      0.293247
     39 H19         9.8220    5.5450   -2.1200 hn        1 MOL      0.293247
     40 H20         8.8390    5.2100   -0.8130 hn        1 MOL      0.293247
     41 N4          1.3960    4.1220   -1.1170 n         1 MOL     -0.428267
     42 C13         0.2220    4.7940   -1.7940 c3        1 MOL      0.067216
     43 C14        -0.8400    5.2480   -0.7970 c         1 MOL      0.396940
     44 O6         -1.7310    6.0660   -1.0870 o         1 MOL     -0.553660
     45 C15        -0.3530    3.8970   -2.8970 c3        1 MOL     -0.368785
     46 C16        -0.8650    2.5620   -2.4010 c         1 MOL      0.764217
     47 O7         -1.7670    2.5830   -1.5620 o         1 MOL     -0.762238
     48 O8         -0.2820    1.4480   -2.6140 o         1 MOL     -0.762238
     49 H21         1.2920    3.1460   -0.8600 hn        1 MOL      0.299711
     50 H22         0.6470    5.6800   -2.2560 h1        1 MOL      0.116171
     51 H23         0.3990    3.8290   -3.6830 hc        1 MOL      0.107222
     52 H24        -1.1610    4.4400   -3.3920 hc        1 MOL      0.107222
     53 N5         -0.7760    4.7210    0.4300 n         1 MOL      0.157409
     54 C17        -1.7230    5.0430    1.4530 c3        1 MOL     -0.240047
     55 C18        -3.2360    4.7650    1.2290 c         1 MOL      0.571265
     56 O9         -4.0830    5.4420    1.9170 o         1 MOL     -0.569276
     57 H25        -0.1140    3.9930    0.6520 hn        1 MOL     -0.151894
     58 H26        -1.5300    6.0720    1.7520 h1        1 MOL      0.117446
     59 H27        -1.3970    4.4140    2.2840 h1        1 MOL      0.117446
     60 N6         -3.6220    3.7870    0.3710 n         1 MOL     -0.299062
     61 C19        -4.9180    3.6490   -0.3730 c3        1 MOL      0.093172
     62 C20        -5.1690    2.1920   -0.6870 c         1 MOL      0.526659
     63 O10        -4.2470    1.3710   -0.7240 o         1 MOL     -0.501979
     64 C21        -4.7150    4.5570   -1.6320 c3        1 MOL     -0.370234
     65 C22        -6.0430    4.6620   -2.3920 c         1 MOL      0.680155
     66 N7         -6.0280    4.2700   -3.6470 n         1 MOL     -0.765237
     67 O11        -7.0970    4.9320   -1.8310 o         1 MOL     -0.573490
     68 H28        -2.8600    3.3150   -0.0950 hn        1 MOL      0.202538
     69 H29        -5.6980    4.0080    0.2950 h1        1 MOL      0.070400
     70 H30        -4.0030    4.2080   -2.3770 hc        1 MOL      0.154544
     71 H31        -4.4290    5.5650   -1.3150 hc        1 MOL      0.154544
     72 H32        -5.2430    3.7850   -4.0580 hn        1 MOL      0.343294
     73 H33        -6.9250    4.1420   -4.1020 hn        1 MOL      0.343294
     74 N8         -6.3930    1.8040   -0.9880 n         1 MOL     -0.396912
     75 C23        -6.8070    0.3950   -1.2790 c3        1 MOL     -0.050002
     76 C24        -6.5400   -0.6010   -0.1070 c         1 MOL      0.478977
     77 O12        -6.7150   -0.2860    1.0970 o         1 MOL     -0.467736
     78 H34        -7.0850    2.5230   -1.1360 hn        1 MOL      0.292201
     79 H35        -6.3530    0.0210   -2.2020 h1        1 MOL      0.065112
     80 H36        -7.8630    0.4630   -1.5390 h1        1 MOL      0.065112
     81 N9         -5.9910   -1.7380   -0.4900 n         1 MOL     -0.513020
     82 C25        -5.4240   -2.7260    0.3970 c3        1 MOL      0.218845
     83 C26        -4.2370   -2.1200    1.1740 c         1 MOL      0.555830
     84 O13        -3.6800   -1.0470    0.8430 o         1 MOL     -0.517730
     85 C27        -5.0310   -3.9990   -0.3210 c3        1 MOL     -0.156136
     86 C28        -5.9730   -4.4690   -1.4130 ca        1 MOL      0.032834
     87 C29        -5.8850   -4.0420   -2.7710 ca        1 MOL     -0.113421
     88 C30        -6.8990   -5.4560   -1.0710 ca        1 MOL     -0.113421
     89 C31        -6.6810   -4.6320   -3.7170 ca        1 MOL     -0.305911
     90 C32        -7.7780   -6.0420   -1.9880 ca        1 MOL     -0.305911
     91 C33        -7.6860   -5.5790   -3.3250 ca        1 MOL      0.378849
     92 O14        -8.5500   -6.0880   -4.2400 oh        1 MOL     -0.471376
     93 H37        -5.9310   -1.8980   -1.4870 hn        1 MOL      0.298806
     94 H38        -6.1540   -2.9670    1.1670 h1        1 MOL      0.035201
     95 H39        -4.9110   -4.7900    0.4290 hc        1 MOL      0.039846
     96 H40        -4.0620   -3.8090   -0.7820 hc        1 MOL      0.039846
     97 H41        -5.0850   -3.3500   -3.0270 ha        1 MOL      0.117604
     98 H42        -6.8890   -5.8150   -0.0580 ha        1 MOL      0.117604
     99 H43        -6.5560   -4.4820   -4.7690 ha        1 MOL      0.173033
    100 H44        -8.3050   -6.9540   -1.7190 ha        1 MOL      0.173033
    101 H45        -9.0670   -6.7640   -3.7860 ho        1 MOL      0.361659
    102 N10        -3.7190   -2.8480    2.1330 n         1 MOL     -0.674450
    103 C34        -2.6490   -2.4460    3.0780 c3        1 MOL      0.345733
    104 C35        -1.2810   -2.1610    2.5040 c         1 MOL      0.357253
    105 O15        -1.1150   -1.3480    1.5810 o         1 MOL     -0.421783
    106 C36        -3.1190   -1.2940    4.0030 c3        1 MOL      0.163176
    107 C37        -2.3170   -0.9500    5.2250 c3        1 MOL     -0.000719
    108 C38        -4.5810   -1.4760    4.4640 c3        1 MOL     -0.245574
    109 C39        -2.0620   -2.1580    6.1140 c3        1 MOL     -0.392606
    110 H46        -4.1460   -3.7480    2.2720 hn        1 MOL      0.322557
    111 H47        -2.5420   -3.2910    3.7520 h1        1 MOL     -0.025138
    112 H48        -3.0350   -0.3750    3.4280 hc        1 MOL      0.025709
    113 H49        -2.8270   -0.1230    5.7260 hc        1 MOL      0.058379
    114 H50        -1.4100   -0.3880    5.0250 hc        1 MOL      0.058379
    115 H51        -4.7820   -2.4770    4.8490 hc        1 MOL      0.063122
    116 H52        -4.8800   -0.8120    5.2800 hc        1 MOL      0.063122
    117 H53        -5.2730   -1.3120    3.6420 hc        1 MOL      0.063122
    118 H54        -3.0440   -2.6390    6.1020 hc        1 MOL      0.087365
    119 H55        -1.2460   -2.7520    5.6920 hc        1 MOL      0.087365
    120 H56        -1.8320   -1.8370    7.1300 hc        1 MOL      0.087365
    121 N11        -0.2400   -2.7030    3.2050 n         1 MOL     -0.613898
    122 C40         1.0980   -2.1160    3.1520 c3        1 MOL      0.121215
    123 C41         1.8970   -2.1280    1.8460 c         1 MOL      0.294295
    124 O16         2.8200   -1.3830    1.8560 o         1 MOL     -0.463550
    125 C42         2.0020   -2.8340    4.2110 c3        1 MOL      0.107740
    126 O17         1.4250   -2.9390    5.4730 oh        1 MOL     -0.603678
    127 H57        -0.5080   -3.2740    3.9870 hn        1 MOL      0.318319
    128 H58         0.9680   -1.0730    3.4340 h1        1 MOL      0.162096
    129 H59         2.9860   -2.3660    4.3000 h1        1 MOL      0.078665
    130 H60         2.1290   -3.8470    3.8440 h1        1 MOL      0.078665
    131 H61         0.9820   -3.7670    5.6560 ho        1 MOL      0.405436
    132 N12         1.4200   -2.7800    0.7910 n         1 MOL     -0.282039
    133 C43         2.1540   -2.7990   -0.4810 c3        1 MOL     -0.061932
    134 C44         1.8950   -1.4420   -1.1670 c         1 MOL      0.604454
    135 O18         0.7710   -1.0220   -1.2990 o         1 MOL     -0.549696
    136 C45         1.6460   -3.9650   -1.3530 c3        1 MOL     -0.306984
    137 H62         0.6540   -3.4290    0.8460 hn        1 MOL      0.265548
    138 H63         3.2060   -2.8410   -0.1940 h1        1 MOL      0.140669
    139 H64         1.6440   -4.9100   -0.8120 hc        1 MOL      0.092510
    140 H65         0.6050   -3.8230   -1.6570 hc        1 MOL      0.092510
    141 H66         2.3010   -4.0460   -2.2110 hc        1 MOL      0.092510
    142 N13         2.8850   -0.7920   -1.8170 n         1 MOL     -0.491885
    143 C46         4.3190   -1.1620   -1.8400 c3        1 MOL      0.012521
    144 C47         4.6870   -2.4940   -2.5620 c         1 MOL      0.596308
    145 O19         4.1940   -2.7630   -3.6610 o         1 MOL     -0.539887
    146 C48         5.0910    0.0210   -2.4500 c3        1 MOL      0.016801
    147 H67         2.5530    0.0380   -2.2980 hn        1 MOL      0.325636
    148 H68         4.6950   -1.1910   -0.8110 h1        1 MOL      0.114536
    149 H69         4.8730    0.1570   -3.5140 hc        1 MOL      0.012198
    150 H70         4.7780    0.9050   -1.8970 hc        1 MOL      0.012198
    151 H71         6.1620   -0.0180   -2.2900 hc        1 MOL      0.012198
    152 N14         5.4540   -3.4720   -1.9600 n         1 MOL     -0.388928
    153 C49         5.9570   -3.4520   -0.6080 c3        1 MOL     -0.514843
    154 C50         6.0730   -4.8760    0.0380 c         1 MOL      0.737194
    155 O20         6.0470   -4.9930    1.2710 o         1 MOL     -0.564117
    156 C51         7.1640   -2.5980   -0.3660 c3        1 MOL      0.321143
    157 C52         8.4620   -3.1600   -1.0120 c3        1 MOL     -0.436119
    158 C53         8.3560   -3.0970   -2.5260 c         1 MOL      0.843830
    159 O21         8.4340   -2.0140   -3.2030 o         1 MOL     -0.722178
    160 O22         8.4010   -4.1560   -3.1150 o         1 MOL     -0.722178
    161 H72         5.5130   -4.3610   -2.4340 hn        1 MOL      0.265782
    162 H73         5.2140   -2.9220   -0.0060 h1        1 MOL      0.144338
    163 H74         7.2110   -2.4960    0.7150 hc        1 MOL     -0.049487
    164 H75         6.9560   -1.6280   -0.7870 hc        1 MOL     -0.049487
    165 H76         8.6910   -4.1850   -0.7290 hc        1 MOL      0.090183
    166 H77         9.3120   -2.5300   -0.7120 hc        1 MOL      0.090183
    167 N15         6.1380   -5.9170   -0.7630 n         1 MOL     -0.416322
    168 C54         6.2690   -7.2770   -0.1860 c3        1 MOL     -0.130687
    169 H78         5.4280   -7.4710    0.4790 h1        1 MOL      0.083979
    170 H79         6.2730   -8.0140   -0.9900 h1        1 MOL      0.083979
    171 H80         7.2000   -7.3460    0.3760 h1        1 MOL      0.083979
    172 H81         6.2200   -5.8210   -1.7580 hn        1 MOL      0.347788
    173 Ca1        -1.7940    0.1050   -0.5720 Ca        1 MOL      1.780701
    174 O23        -2.8910   -0.3770   -2.9930 oh        1 MOL     -0.854409
    175 H82        -2.2840   -0.2990   -3.7240 ho        1 MOL      0.421519
    176 H83        -3.7300   -0.6020   -3.4090 ho        1 MOL      0.421519
    177 O24        -1.7650   -2.5400   -1.1280 oh        1 MOL     -0.854409
    178 H84        -1.3440   -3.2760   -0.6840 ho        1 MOL      0.421519
    179 H85        -1.5540   -2.6650   -2.0540 ho        1 MOL      0.421519
@<TRIPOS>BOND
     1    1    2 1   
     2    1    4 1   
     3    1    5 1   
     4    1    6 1   
     5    2    3 2   
     6    2    7 1   
     7    7    8 1   
     8    7   15 1   
     9    8    9 1   
    10    8   11 1   
    11    8   16 1   
    12    9   10 2   
    13    9   19 1   
    14   11   12 1   
    15   11   17 1   
    16   11   18 1   
    17   12   13 1   
    18   12   14 1   
    19   19   20 1   
    20   19   28 1   
    21   20   21 1   
    22   20   23 1   
    23   20   29 1   
    24   21   22 2   
    25   21   41 1   
    26   23   24 1   
    27   23   30 1   
    28   23   31 1   
    29   24   25 1   
    30   24   32 1   
    31   24   33 1   
    32   25   26 1   
    33   25   34 1   
    34   25   35 1   
    35   26   27 1   
    36   26   36 1   
    37   26   37 1   
    38   27   38 1   
    39   27   39 1   
    40   27   40 1   
    41   41   42 1   
    42   41   49 1   
    43   42   43 1   
    44   42   45 1   
    45   42   50 1   
    46   43   44 2   
    47   43   53 1   
    48   45   46 1   
    49   45   51 1   
    50   45   52 1   
    51   46   47 1   
    52   46   48 1   
    53   53   54 1   
    54   53   57 1   
    55   54   55 1   
    56   54   58 1   
    57   54   59 1   
    58   55   56 2   
    59   55   60 1   
    60   60   61 1   
    61   60   68 1   
    62   61   62 1   
    63   61   64 1   
    64   61   69 1   
    65   62   63 2   
    66   62   74 1   
    67   64   65 1   
    68   64   70 1   
    69   64   71 1   
    70   65   66 1   
    71   65   67 2   
    72   66   72 1   
    73   66   73 1   
    74   74   75 1   
    75   74   78 1   
    76   75   76 1   
    77   75   79 1   
    78   75   80 1   
    79   76   77 2   
    80   76   81 1   
    81   81   82 1   
    82   81   93 1   
    83   82   83 1   
    84   82   85 1   
    85   82   94 1   
    86   83   84 2   
    87   83  102 1   
    88   85   86 1   
    89   85   95 1   
    90   85   96 1   
    91   86   87 ar  
    92   86   88 ar  
    93   87   89 ar  
    94   87   97 1   
    95   88   90 ar  
    96   88   98 1   
    97   89   91 ar  
    98   89   99 1   
    99   90   91 ar  
   100   90  100 1   
   101   91   92 1   
   102   92  101 1   
   103  102  103 1   
   104  102  110 1   
   105  103  104 1   
   106  103  106 1   
   107  103  111 1   
   108  104  105 2   
   109  104  121 1   
   110  106  107 1   
   111  106  108 1   
   112  106  112 1   
   113  107  109 1   
   114  107  113 1   
   115  107  114 1   
   116  108  115 1   
   117  108  116 1   
   118  108  117 1   
   119  109  118 1   
   120  109  119 1   
   121  109  120 1   
   122  121  122 1   
   123  121  127 1   
   124  122  123 1   
   125  122  125 1   
   126  122  128 1   
   127  123  124 2   
   128  123  132 1   
   129  125  126 1   
   130  125  129 1   
   131  125  130 1   
   132  126  131 1   
   133  132  133 1   
   134  132  137 1   
   135  133  134 1   
   136  133  136 1   
   137  133  138 1   
   138  134  135 2   
   139  134  142 1   
   140  136  139 1   
   141  136  140 1   
   142  136  141 1   
   143  142  143 1   
   144  142  147 1   
   145  143  144 1   
   146  143  146 1   
   147  143  148 1   
   148  144  145 2   
   149  144  152 1   
   150  146  149 1   
   151  146  150 1   
   152  146  151 1   
   153  152  153 1   
   154  152  161 1   
   155  153  154 1   
   156  153  156 1   
   157  153  162 1   
   158  154  155 2   
   159  154  167 1   
   160  156  157 1   
   161  156  163 1   
   162  156  164 1   
   163  157  158 1   
   164  157  165 1   
   165  157  166 1   
   166  158  159 1   
   167  158  160 1   
   168  167  168 1   
   169  167  172 1   
   170  168  169 1   
   171  168  170 1   
   172  168  171 1   
   173  174  175 1   
   174  174  176 1   
   175  177  178 1   
   176  177  179 1   
@<TRIPOS>SUBSTRUCTURE
     1 MOL         1 TEMP              0 ****  ****    0 ROOT
