@<TRIPOS>MOLECULE
MOL
  192   187     1     0     0
SMALL
resp


@<TRIPOS>ATOM
      1 C1         11.7180    5.0030   -3.1480 c3        1 MOL     -0.322972
      2 C2         11.7890    3.8560   -2.1870 c         1 MOL      0.583170
      3 O1         12.8750    3.2600   -2.0480 o         1 MOL     -0.563703
      4 H1         12.6980    5.4750   -3.2220 hc        1 MOL      0.087449
      5 H2         11.4160    4.6380   -4.1290 hc        1 MOL      0.087449
      6 H3         10.9900    5.7320   -2.7900 hc        1 MOL      0.087449
      7 N1         10.6900    3.6840   -1.4400 n         1 MOL     -0.064158
      8 C3         10.4110    2.6220   -0.4620 c3        1 MOL     -0.640482
      9 C4          9.0660    1.8850   -0.6400 c         1 MOL      0.677307
     10 O2          8.1530    2.4730   -1.1640 o         1 MOL     -0.617104
     11 C5         10.5500    3.2070    1.0050 c3        1 MOL      0.105529
     12 C6          9.7670    4.5280    1.3420 c         1 MOL      0.601941
     13 O3         10.0820    5.1920    2.3130 o         1 MOL     -0.658896
     14 O4          8.7290    4.8330    0.6940 o         1 MOL     -0.658896
     15 H4          9.9570    4.3250   -1.6690 hn        1 MOL      0.068049
     16 H5         11.2140    1.8950   -0.5800 h1        1 MOL      0.182605
     17 H6         11.5910    3.3880    1.2810 hc        1 MOL      0.041912
     18 H7         10.1820    2.3830    1.6110 hc        1 MOL      0.041912
     19 N2          8.9220    0.6280   -0.2150 n         1 MOL     -0.251751
     20 C7          7.6490   -0.1410   -0.2160 c3        1 MOL     -0.153482
     21 C8          6.9560   -0.1290    1.1670 c         1 MOL      0.420611
     22 O5          7.5660   -0.4000    2.2110 o         1 MOL     -0.509348
     23 C9          7.8010   -1.5670   -0.6420 c3        1 MOL     -0.034358
     24 C10         7.9410   -1.8900   -2.0990 c3        1 MOL     -0.104380
     25 C11         8.0200   -3.3870   -2.2860 c3        1 MOL      0.014269
     26 C12         8.3170   -3.7580   -3.7620 c3        1 MOL     -0.059021
     27 N3          8.2850   -5.1780   -3.9480 n4        1 MOL     -0.253092
     28 H8          9.7980    0.1400   -0.1060 hn        1 MOL      0.256493
     29 H9          6.9670    0.2620   -0.9670 h1        1 MOL      0.136997
     30 H10         6.8430   -1.9980   -0.3530 hc        1 MOL      0.064799
     31 H11         8.5010   -2.1570   -0.0360 hc        1 MOL      0.064799
     32 H12         8.8800   -1.4620   -2.4450 hc        1 MOL      0.037627
     33 H13         7.1690   -1.4390   -2.7270 hc        1 MOL      0.037627
     34 H14         7.1600   -3.8980   -1.8780 hc        1 MOL      0.034956
     35 H15         8.7530   -3.8170   -1.5930 hc        1 MOL      0.034956
     36 H16         9.3140   -3.3760   -4.0310 hx        1 MOL      0.104549
     37 H17         7.5510   -3.2840   -4.3730 hx        1 MOL      0.104549
     38 H18         9.1950   -5.5500   -3.7490 hn        1 MOL      0.282990
     39 H19         7.7390   -5.6830   -3.2650 hn        1 MOL      0.282990
     40 H20         8.0120   -5.3720   -4.9030 hn        1 MOL      0.282990
     41 N4          5.7380    0.3340    1.1100 n         1 MOL     -0.158109
     42 C13         4.7010    0.4820    2.1700 c3        1 MOL      0.043783
     43 C14         3.3280    0.5520    1.4020 c         1 MOL      0.427845
     44 O6          3.2330    1.1120    0.3510 o         1 MOL     -0.580418
     45 C15         4.8830    1.7580    2.9870 c3        1 MOL     -0.247551
     46 C16         5.2880    2.9280    2.0670 c         1 MOL      0.726205
     47 O7          6.4710    3.2350    2.0350 o         1 MOL     -0.709797
     48 O8          4.5100    3.5330    1.2960 o         1 MOL     -0.709797
     49 H21         5.4690    0.6570    0.1930 hn        1 MOL      0.164276
     50 H22         4.6960   -0.3420    2.8760 h1        1 MOL      0.076409
     51 H23         5.6540    1.5950    3.7390 hc        1 MOL      0.088054
     52 H24         3.9180    1.9890    3.4380 hc        1 MOL      0.088054
     53 N5          2.2360    0.0110    1.8790 n         1 MOL     -0.265859
     54 C17         2.2100   -0.9130    2.9670 c3        1 MOL     -0.139008
     55 C18         2.8330   -2.2430    2.5890 c         1 MOL      0.491517
     56 O9          3.2230   -2.4190    1.4420 o         1 MOL     -0.579974
     57 H25         1.4220    0.3400    1.3770 hn        1 MOL      0.297414
     58 H26         1.2100   -1.1180    3.3650 h1        1 MOL      0.086879
     59 H27         2.6750   -0.4870    3.8570 h1        1 MOL      0.086879
     60 N6          2.8620   -3.1350    3.5300 n         1 MOL     -0.145023
     61 C19         3.3430   -4.5110    3.3500 c3        1 MOL     -0.214837
     62 C20         2.2690   -5.4540    2.7310 c         1 MOL      0.623411
     63 O10         2.5880   -6.2840    1.8090 o         1 MOL     -0.572803
     64 C21         3.8110   -5.0380    4.7810 c3        1 MOL     -0.342834
     65 C22         2.8610   -4.9000    5.9480 c         1 MOL      0.771748
     66 O11         3.2650   -5.2650    7.0340 o         1 MOL     -0.671873
     67 O12         1.7150   -4.3150    5.8300 o         1 MOL     -0.671873
     68 H28         2.6810   -2.7360    4.4480 hn        1 MOL      0.177441
     69 H29         4.2450   -4.4870    2.7290 h1        1 MOL      0.122809
     70 H30         4.6980   -4.4480    4.9720 hc        1 MOL      0.120629
     71 H31         3.9620   -6.1070    4.5910 hc        1 MOL      0.120629
     72 N7          0.9630   -5.1270    2.9430 n         1 MOL     -0.436291
     73 C23        -0.1170   -5.8120    2.1870 c3        1 MOL      0.144246
     74 C24        -0.3110   -5.4500    0.6720 c         1 MOL      0.418004
     75 O13        -1.0340   -6.2100    0.0120 o         1 MOL     -0.531101
     76 H32         0.7180   -4.3760    3.5590 hn        1 MOL      0.245049
     77 H33        -1.0890   -5.6740    2.6650 h1        1 MOL      0.046634
     78 H34         0.0450   -6.8850    2.2690 h1        1 MOL      0.046634
     79 N8          0.4300   -4.4220    0.1740 n         1 MOL     -0.401584
     80 C25         0.5130   -4.0620   -1.2440 c3        1 MOL      0.144860
     81 C26         0.3900   -2.5780   -1.4850 c         1 MOL      0.375252
     82 O14         0.8020   -1.7490   -0.6920 o         1 MOL     -0.417721
     83 C27         1.7760   -4.6210   -1.9050 c3        1 MOL      0.319119
     84 C28         1.8880   -6.1560   -1.7640 c3        1 MOL     -0.401732
     85 O15         1.7510   -4.3200   -3.2630 oh        1 MOL     -0.610787
     86 H35         0.9830   -3.8680    0.8060 hn        1 MOL      0.244462
     87 H36        -0.3410   -4.6020   -1.6500 h1        1 MOL      0.058550
     88 H37         2.5990   -4.0490   -1.4700 h1        1 MOL      0.001476
     89 H38         2.6880   -4.2190   -3.4450 ho        1 MOL      0.376467
     90 H39         1.0720   -6.6790   -2.2680 hc        1 MOL      0.110100
     91 H40         2.8550   -6.4180   -2.1920 hc        1 MOL      0.110100
     92 H41         2.0170   -6.4030   -0.7080 hc        1 MOL      0.110100
     93 N9         -0.3240   -2.1670   -2.5430 n         1 MOL     -0.394781
     94 C29        -0.8440   -0.7770   -2.7090 c3        1 MOL     -0.013122
     95 C30        -2.1690   -0.5580   -1.9790 c         1 MOL      0.564187
     96 O16        -2.4850    0.4920   -1.4060 o         1 MOL     -0.529446
     97 C31        -0.9020   -0.4190   -4.1960 c3        1 MOL      0.096933
     98 C32         0.3730   -0.7460   -4.9670 c3        1 MOL      0.167975
     99 C33        -1.3490    1.0720   -4.3070 c3        1 MOL     -0.173765
    100 C34         1.6420   -0.0910   -4.3890 c3        1 MOL     -0.330493
    101 H42        -0.6100   -2.8060   -3.2710 hn        1 MOL      0.274196
    102 H43        -0.1630   -0.0710   -2.2430 h1        1 MOL      0.071901
    103 H44        -1.7520   -0.9720   -4.6020 hc        1 MOL     -0.025518
    104 H45         0.1480   -0.4340   -5.9940 hc        1 MOL     -0.037761
    105 H46         0.4890   -1.8310   -5.0490 hc        1 MOL     -0.037761
    106 H47        -1.3480    1.3720   -5.3460 hc        1 MOL      0.046102
    107 H48        -2.3670    1.1580   -3.9160 hc        1 MOL      0.046102
    108 H49        -0.6970    1.7420   -3.7550 hc        1 MOL      0.046102
    109 H50         1.5650   -0.0470   -3.2990 hc        1 MOL      0.078527
    110 H51         2.5380   -0.6320   -4.6960 hc        1 MOL      0.078527
    111 H52         1.6800    0.9380   -4.7470 hc        1 MOL      0.078527
    112 N10        -2.9800   -1.6260   -1.9410 n         1 MOL     -0.324483
    113 C35        -4.2600   -1.4960   -1.0950 c3        1 MOL     -0.048336
    114 C36        -5.5030   -2.0780   -1.8010 c         1 MOL      0.501124
    115 O17        -5.3800   -2.9570   -2.6550 o         1 MOL     -0.523309
    116 C37        -4.1430   -2.1280    0.3110 c3        1 MOL      0.298370
    117 C38        -3.7620   -3.5640    0.2620 c3        1 MOL     -0.343808
    118 O18        -3.1580   -1.4870    1.0690 oh        1 MOL     -0.576608
    119 H53        -2.8670   -2.3780   -2.5970 hn        1 MOL      0.230943
    120 H54        -4.5520   -0.4540   -0.9310 h1        1 MOL      0.086532
    121 H55        -5.0620   -1.9180    0.8730 h1        1 MOL     -0.009548
    122 H56        -3.3750   -1.7920    1.9590 ho        1 MOL      0.389797
    123 H57        -4.5800   -4.2690    0.1170 hc        1 MOL      0.096587
    124 H58        -3.1100   -3.5940   -0.6100 hc        1 MOL      0.096587
    125 H59        -3.2730   -3.8070    1.2080 hc        1 MOL      0.096587
    126 N11        -6.5960   -1.5100   -1.4510 n         1 MOL     -0.399382
    127 C39        -7.9290   -1.8580   -2.0640 c3        1 MOL     -0.055219
    128 C40        -8.9350   -0.6680   -2.0570 c         1 MOL      0.586734
    129 O19        -9.3960   -0.3790   -3.1520 o         1 MOL     -0.534338
    130 C41        -8.5010   -3.1500   -1.4610 c3        1 MOL      0.271584
    131 C42        -9.8490   -3.5900   -1.9590 c3        1 MOL     -0.416777
    132 O20        -8.5900   -3.0780    0.0010 oh        1 MOL     -0.663574
    133 H60        -6.6100   -0.7120   -0.8290 hn        1 MOL      0.272934
    134 H61        -7.6990   -2.1550   -3.0870 h1        1 MOL      0.114991
    135 H62        -7.8540   -3.9990   -1.7120 h1        1 MOL      0.071415
    136 H63        -8.8520   -3.9560    0.2790 ho        1 MOL      0.415347
    137 H64        -9.7120   -3.6830   -3.0350 hc        1 MOL      0.112032
    138 H65       -10.1490   -4.5800   -1.6000 hc        1 MOL      0.112032
    139 H66       -10.6910   -2.9490   -1.6960 hc        1 MOL      0.112032
    140 N12        -9.2180   -0.0850   -0.8810 n         1 MOL     -0.367324
    141 C43       -10.1250    1.0510   -0.6840 c3        1 MOL     -0.147492
    142 C44        -9.7100    1.9880    0.4620 c         1 MOL      0.533889
    143 O21        -9.4020    1.4810    1.5660 o         1 MOL     -0.505842
    144 C45       -11.5720    0.6380   -0.5900 c3        1 MOL     -0.164015
    145 C46       -11.8140   -0.3810    0.5110 c3        1 MOL      0.031411
    146 C47       -13.1710   -1.0990    0.7160 c3        1 MOL     -0.058751
    147 C48       -14.3350   -0.0900    0.7310 c3        1 MOL      0.116034
    148 N13       -15.5250   -0.7560    1.1940 n4        1 MOL     -0.244711
    149 H67        -8.7580   -0.4690   -0.0780 hn        1 MOL      0.290017
    150 H68       -10.0680    1.6210   -1.6070 h1        1 MOL      0.114635
    151 H69       -11.8270    0.1760   -1.5380 hc        1 MOL      0.073562
    152 H70       -12.2400    1.4950   -0.4600 hc        1 MOL      0.073562
    153 H71       -11.6210    0.0300    1.5040 hc        1 MOL      0.055056
    154 H72       -11.1150   -1.2120    0.3580 hc        1 MOL      0.055056
    155 H73       -13.0020   -1.6020    1.6760 hc        1 MOL      0.021362
    156 H74       -13.3990   -1.8600   -0.0260 hc        1 MOL      0.021362
    157 H75       -14.4940    0.3220   -0.2590 hx        1 MOL      0.053925
    158 H76       -14.1110    0.7810    1.3430 hx        1 MOL      0.053925
    159 H77       -15.4520   -1.4250    1.9510 hn        1 MOL      0.240633
    160 H78       -16.2950   -0.1600    1.4660 hn        1 MOL      0.240633
    161 H79       -15.7920   -1.2660    0.3680 hn        1 MOL      0.240633
    162 N14        -9.6420    3.2600    0.1460 n         1 MOL     -0.503179
    163 C49        -8.9300    4.2560    1.0320 c3        1 MOL      0.300260
    164 C50        -7.4060    4.0840    1.2470 c         1 MOL      0.316319
    165 O22        -6.9940    3.9530    2.4340 o         1 MOL     -0.495272
    166 C51        -9.3170    5.6780    0.6290 c3        1 MOL     -0.106345
    167 C52        -9.0590    6.6640    1.7520 c3        1 MOL     -0.227916
    168 C53        -9.5700    8.0670    1.4020 c         1 MOL      0.715041
    169 O23        -8.7510    9.0250    1.3990 o         1 MOL     -0.654861
    170 O24       -10.7870    8.2110    1.2340 o         1 MOL     -0.654861
    171 H80        -9.9190    3.5520   -0.7780 hn        1 MOL      0.294711
    172 H81        -9.3560    4.0750    2.0180 h1        1 MOL      0.037363
    173 H82       -10.3460    5.7620    0.2950 hc        1 MOL      0.036909
    174 H83        -8.7360    5.9520   -0.2550 hc        1 MOL      0.036909
    175 H84        -8.0040    6.7180    1.9970 hc        1 MOL      0.063802
    176 H85        -9.4910    6.3420    2.7040 hc        1 MOL      0.063802
    177 N15        -6.5550    3.8280    0.2020 n         1 MOL     -0.318477
    178 C54        -6.7530    4.1390   -1.1930 c3        1 MOL      0.024221
    179 H86        -5.9140    4.7330   -1.5540 h1        1 MOL      0.033653
    180 H87        -6.8160    3.2140   -1.7660 h1        1 MOL      0.033653
    181 H88        -7.6770    4.7040   -1.3120 h1        1 MOL      0.033653
    182 H89        -5.6410    3.4630    0.4410 hn        1 MOL      0.286978
    183 Ca1         6.4520    4.4030   -0.2530 Ca        1 MOL      1.731736
    184 O25         5.6770    6.2580    1.3340 oh        1 MOL     -0.866608
    185 H90         5.0370    6.2710    2.0440 ho        1 MOL      0.426182
    186 H91         6.2770    6.9690    1.5310 ho        1 MOL      0.426182
    187 O26         3.9410    5.0450   -1.1300 oh        1 MOL     -0.866608
    188 H92         3.4870    4.2040   -1.1170 ho        1 MOL      0.426182
    189 H93         3.3140    5.6710   -0.7590 ho        1 MOL      0.426182
    190 O27         5.2330    2.1250   -1.1920 oh        1 MOL     -0.866608
    191 H94         5.0220    1.8130   -2.0780 ho        1 MOL      0.426182
    192 H95         4.4280    2.0030   -0.6940 ho        1 MOL      0.426182
@<TRIPOS>BOND
     1    1    2 1   
     2    1    4 1   
     3    1    5 1   
     4    1    6 1   
     5    2    3 2   
     6    2    7 1   
     7    7    8 1   
     8    7   15 1   
     9    8    9 1   
    10    8   11 1   
    11    8   16 1   
    12    9   10 2   
    13    9   19 1   
    14   11   12 1   
    15   11   17 1   
    16   11   18 1   
    17   12   13 1   
    18   12   14 1   
    19   19   20 1   
    20   19   28 1   
    21   20   21 1   
    22   20   23 1   
    23   20   29 1   
    24   21   22 2   
    25   21   41 1   
    26   23   24 1   
    27   23   30 1   
    28   23   31 1   
    29   24   25 1   
    30   24   32 1   
    31   24   33 1   
    32   25   26 1   
    33   25   34 1   
    34   25   35 1   
    35   26   27 1   
    36   26   36 1   
    37   26   37 1   
    38   27   38 1   
    39   27   39 1   
    40   27   40 1   
    41   41   42 1   
    42   41   49 1   
    43   42   43 1   
    44   42   45 1   
    45   42   50 1   
    46   43   44 2   
    47   43   53 1   
    48   45   46 1   
    49   45   51 1   
    50   45   52 1   
    51   46   47 1   
    52   46   48 1   
    53   53   54 1   
    54   53   57 1   
    55   54   55 1   
    56   54   58 1   
    57   54   59 1   
    58   55   56 2   
    59   55   60 1   
    60   60   61 1   
    61   60   68 1   
    62   61   62 1   
    63   61   64 1   
    64   61   69 1   
    65   62   63 2   
    66   62   72 1   
    67   64   65 1   
    68   64   70 1   
    69   64   71 1   
    70   65   66 1   
    71   65   67 1   
    72   72   73 1   
    73   72   76 1   
    74   73   74 1   
    75   73   77 1   
    76   73   78 1   
    77   74   75 2   
    78   74   79 1   
    79   79   80 1   
    80   79   86 1   
    81   80   81 1   
    82   80   83 1   
    83   80   87 1   
    84   81   82 2   
    85   81   93 1   
    86   83   84 1   
    87   83   85 1   
    88   83   88 1   
    89   84   90 1   
    90   84   91 1   
    91   84   92 1   
    92   85   89 1   
    93   93   94 1   
    94   93  101 1   
    95   94   95 1   
    96   94   97 1   
    97   94  102 1   
    98   95   96 2   
    99   95  112 1   
   100   97   98 1   
   101   97   99 1   
   102   97  103 1   
   103   98  100 1   
   104   98  104 1   
   105   98  105 1   
   106   99  106 1   
   107   99  107 1   
   108   99  108 1   
   109  100  109 1   
   110  100  110 1   
   111  100  111 1   
   112  112  113 1   
   113  112  119 1   
   114  113  114 1   
   115  113  116 1   
   116  113  120 1   
   117  114  115 2   
   118  114  126 1   
   119  116  117 1   
   120  116  118 1   
   121  116  121 1   
   122  117  123 1   
   123  117  124 1   
   124  117  125 1   
   125  118  122 1   
   126  126  127 1   
   127  126  133 1   
   128  127  128 1   
   129  127  130 1   
   130  127  134 1   
   131  128  129 2   
   132  128  140 1   
   133  130  131 1   
   134  130  132 1   
   135  130  135 1   
   136  131  137 1   
   137  131  138 1   
   138  131  139 1   
   139  132  136 1   
   140  140  141 1   
   141  140  149 1   
   142  141  142 1   
   143  141  144 1   
   144  141  150 1   
   145  142  143 2   
   146  142  162 1   
   147  144  145 1   
   148  144  151 1   
   149  144  152 1   
   150  145  146 1   
   151  145  153 1   
   152  145  154 1   
   153  146  147 1   
   154  146  155 1   
   155  146  156 1   
   156  147  148 1   
   157  147  157 1   
   158  147  158 1   
   159  148  159 1   
   160  148  160 1   
   161  148  161 1   
   162  162  163 1   
   163  162  171 1   
   164  163  164 1   
   165  163  166 1   
   166  163  172 1   
   167  164  165 2   
   168  164  177 1   
   169  166  167 1   
   170  166  173 1   
   171  166  174 1   
   172  167  168 1   
   173  167  175 1   
   174  167  176 1   
   175  168  169 1   
   176  168  170 1   
   177  177  178 1   
   178  177  182 1   
   179  178  179 1   
   180  178  180 1   
   181  178  181 1   
   182  184  185 1   
   183  184  186 1   
   184  187  188 1   
   185  187  189 1   
   186  190  191 1   
   187  190  192 1   
@<TRIPOS>SUBSTRUCTURE
     1 MOL         1 TEMP              0 ****  ****    0 ROOT
