@<TRIPOS>MOLECULE
MOL
  181   177     1     0     0
SMALL
resp


@<TRIPOS>ATOM
      1 C1        -11.3060    6.6400   -0.0550 c3        1 MOL     -0.350553
      2 C2        -10.0300    5.9270   -0.5260 c         1 MOL      0.745078
      3 O1         -9.2650    6.5310   -1.2200 o         1 MOL     -0.600882
      4 H1        -11.6020    7.3830   -0.7960 hc        1 MOL      0.079740
      5 H2        -12.1070    5.9100    0.0660 hc        1 MOL      0.079740
      6 H3        -11.1160    7.1350    0.8980 hc        1 MOL      0.079740
      7 N1         -9.8050    4.6390   -0.2840 n         1 MOL     -0.688113
      8 C3        -10.5770    3.7270    0.6340 c3        1 MOL      0.278271
      9 C4        -10.9960    2.4450   -0.1600 c         1 MOL      0.365496
     10 O2        -11.6260    1.5960    0.4050 o         1 MOL     -0.525163
     11 C5         -9.7930    3.2180    1.8170 c3        1 MOL     -0.413574
     12 C6         -8.5300    2.4920    1.4620 c         1 MOL      0.998353
     13 O3         -8.0220    1.9670    2.4800 o         1 MOL     -0.806650
     14 O4         -7.9990    2.4180    0.3400 o         1 MOL     -0.806650
     15 H4         -8.9780    4.3200   -0.7660 hn        1 MOL      0.372360
     16 H5        -11.5200    4.1760    0.9440 h1        1 MOL      0.052558
     17 H6        -10.4540    2.5460    2.3750 hc        1 MOL      0.096007
     18 H7         -9.5910    4.0710    2.4660 hc        1 MOL      0.096007
     19 N2        -10.7140    2.3620   -1.4770 n         1 MOL     -0.372837
     20 C7        -11.2000    1.3360   -2.4390 c3        1 MOL      0.144428
     21 C8        -10.5100   -0.0250   -2.3900 c         1 MOL      0.394206
     22 O5        -10.9930   -0.9430   -3.0050 o         1 MOL     -0.537955
     23 C9        -11.2580    2.0250   -3.8380 c3        1 MOL     -0.211806
     24 H8        -10.3090    3.2120   -1.8310 hn        1 MOL      0.240782
     25 H9        -12.2390    1.1430   -2.1840 h1        1 MOL      0.066728
     26 H10       -11.9080    1.4140   -4.4690 hc        1 MOL      0.066460
     27 H11       -11.7990    2.9750   -3.7940 hc        1 MOL      0.066460
     28 H12       -10.2760    2.1950   -4.2700 hc        1 MOL      0.066460
     29 N3         -9.4130   -0.1980   -1.6500 n         1 MOL     -0.169503
     30 C10        -8.6310   -1.4170   -1.5220 c3        1 MOL      0.084798
     31 C11        -8.1380   -1.6070   -0.0620 c         1 MOL      0.391680
     32 O6         -8.0670   -0.6790    0.7180 o         1 MOL     -0.528391
     33 C12        -7.4350   -1.3970   -2.4610 c3        1 MOL     -0.168358
     34 C13        -6.5760   -0.1690   -2.3780 c         1 MOL      0.633388
     35 O7         -6.4670    0.6500   -3.3230 o         1 MOL     -0.644486
     36 O8         -6.0290    0.0170   -1.2570 o         1 MOL     -0.644486
     37 H13        -9.0700    0.5410   -1.0580 hn        1 MOL      0.222154
     38 H14        -9.3190   -2.2370   -1.7510 h1        1 MOL      0.026539
     39 H15        -7.9530   -1.4620   -3.4230 hc        1 MOL      0.033967
     40 H16        -6.8190   -2.2850   -2.3250 hc        1 MOL      0.033967
     41 N4         -7.7380   -2.8390    0.2610 n         1 MOL     -0.306003
     42 C14        -6.9040   -3.2950    1.4570 c3        1 MOL     -0.228167
     43 C15        -5.4740   -2.8220    1.4090 c         1 MOL      0.637057
     44 O9         -5.2010   -1.6460    1.2140 o         1 MOL     -0.589350
     45 H17        -7.8980   -3.4660   -0.5130 hn        1 MOL      0.255146
     46 H18        -6.8800   -4.3810    1.5090 h1        1 MOL      0.113450
     47 H19        -7.3770   -2.9540    2.3720 h1        1 MOL      0.113450
     48 N5         -4.5560   -3.7020    1.6120 n         1 MOL     -0.366206
     49 C16        -3.2190   -3.3760    2.1190 c3        1 MOL     -0.010664
     50 C17        -2.1950   -4.1090    1.3510 c         1 MOL      0.575630
     51 O10        -2.4360   -5.2300    0.9220 o         1 MOL     -0.549611
     52 C18        -3.0330   -3.6970    3.6170 c3        1 MOL     -0.427964
     53 C19        -4.1310   -3.2040    4.6030 c         1 MOL      0.794206
     54 N6         -4.7870   -4.1900    5.1380 n         1 MOL     -0.820951
     55 O11        -4.4200   -2.0230    4.7540 o         1 MOL     -0.607701
     56 H20        -4.7460   -4.6870    1.4760 hn        1 MOL      0.271987
     57 H21        -3.1030   -2.2940    1.9820 h1        1 MOL      0.147074
     58 H22        -2.0890   -3.2220    3.8920 hc        1 MOL      0.120497
     59 H23        -2.9000   -4.7510    3.8510 hc        1 MOL      0.120497
     60 H24        -4.5110   -5.1320    4.9030 hn        1 MOL      0.382456
     61 H25        -5.6340   -3.9460    5.6370 hn        1 MOL      0.382456
     62 N7         -1.0000   -3.5820    1.1150 n         1 MOL     -0.392310
     63 C20         0.1090   -4.2180    0.4570 c3        1 MOL     -0.041437
     64 C21        -0.0630   -4.3220   -1.0760 c         1 MOL      0.573376
     65 O12        -1.0290   -3.8650   -1.6650 o         1 MOL     -0.516876
     66 H26        -0.7740   -2.7750    1.6850 hn        1 MOL      0.282035
     67 H27         0.2410   -5.2690    0.7010 h1        1 MOL      0.087386
     68 H28         1.0520   -3.8060    0.8320 h1        1 MOL      0.087386
     69 N8          0.9160   -4.8400   -1.8410 n         1 MOL     -0.460285
     70 C22         2.1340   -5.5330   -1.3890 c3        1 MOL     -0.049247
     71 C23         3.3280   -4.6050   -1.2930 c         1 MOL      0.685578
     72 O13         4.2860   -4.9620   -0.6470 o         1 MOL     -0.637646
     73 C24         2.5140   -6.6700   -2.2780 c3        1 MOL      0.285228
     74 C25         1.5380   -7.8290   -2.1440 c3        1 MOL     -0.213666
     75 O14         2.5790   -6.4030   -3.6170 oh        1 MOL     -0.558932
     76 H29         0.7560   -4.8290   -2.8410 hn        1 MOL      0.271372
     77 H30         2.0870   -6.0150   -0.4200 h1        1 MOL      0.059300
     78 H31         3.5060   -7.0630   -2.0350 h1        1 MOL      0.066329
     79 H32         1.6960   -6.1820   -3.9280 ho        1 MOL      0.372854
     80 H33         1.7330   -8.5800   -2.9050 hc        1 MOL      0.041436
     81 H34         1.5190   -8.3290   -1.1770 hc        1 MOL      0.041436
     82 H35         0.5200   -7.4990   -2.3230 hc        1 MOL      0.041436
     83 N9          3.2820   -3.5020   -2.0580 n         1 MOL     -0.459410
     84 C26         4.3770   -2.5560   -2.1960 c3        1 MOL     -0.114847
     85 C27         3.9500   -1.1540   -1.6930 c         1 MOL      0.459740
     86 O15         3.0380   -0.4810   -2.2470 o         1 MOL     -0.515044
     87 C28         4.9100   -2.4980   -3.6220 c3        1 MOL      0.224967
     88 C29         5.2250   -3.8680   -4.2100 c3        1 MOL      0.184530
     89 C30         6.1170   -1.5790   -3.6040 c3        1 MOL     -0.022869
     90 C31         6.2280   -4.7220   -3.4100 c3        1 MOL     -0.329565
     91 H36         2.4490   -3.2210   -2.5650 hn        1 MOL      0.284306
     92 H37         5.1510   -2.8520   -1.4950 h1        1 MOL      0.206694
     93 H38         4.2020   -2.0360   -4.3050 hc        1 MOL     -0.008178
     94 H39         5.4990   -3.7310   -5.2610 hc        1 MOL     -0.063838
     95 H40         4.2580   -4.3390   -4.3540 hc        1 MOL     -0.063838
     96 H41         5.7390   -0.5670   -3.4620 hc        1 MOL     -0.006510
     97 H42         6.8810   -1.7870   -2.8540 hc        1 MOL     -0.006510
     98 H43         6.4780   -1.6410   -4.6350 hc        1 MOL     -0.006510
     99 H44         6.8610   -4.0690   -2.8030 hc        1 MOL      0.064629
    100 H45         5.6960   -5.3700   -2.7280 hc        1 MOL      0.064629
    101 H46         6.8750   -5.2610   -4.0970 hc        1 MOL      0.064629
    102 N10         4.6040   -0.5310   -0.7220 n         1 MOL     -0.516055
    103 C32         5.5200   -1.1090    0.2150 c3        1 MOL     -0.310660
    104 C33         6.4670    0.0330    0.6840 c         1 MOL      0.959101
    105 O16         5.9730    1.0890    1.1220 o         1 MOL     -0.523613
    106 C34         4.8330   -1.8880    1.3580 c3        1 MOL      0.401434
    107 C35         3.7130   -1.1760    2.1090 c         1 MOL      0.417209
    108 O17         3.9210   -0.9560    3.3050 o         1 MOL     -0.639924
    109 O18         2.6410   -0.7640    1.4770 o         1 MOL     -0.639924
    110 H47         4.2390    0.3930   -0.5350 hn        1 MOL      0.348437
    111 H48         6.1650   -1.8920   -0.1920 h1        1 MOL      0.006630
    112 H49         5.5130   -2.2720    2.1220 hc        1 MOL     -0.098273
    113 H50         4.2870   -2.7330    0.9460 hc        1 MOL     -0.098273
    114 N11         7.7880   -0.1540    0.6340 n         1 MOL     -0.660861
    115 C36         8.6950    0.9250    1.0110 c3        1 MOL      0.189698
    116 C37         9.7310    1.3440   -0.0910 c         1 MOL      0.391180
    117 O19        10.1100    0.5600   -0.8730 o         1 MOL     -0.501128
    118 C38         9.5170    0.3650    2.1490 c3        1 MOL     -0.081420
    119 C39         8.7510   -0.3230    3.3220 ca        1 MOL      0.020900
    120 C40         8.1680    0.4290    4.3790 ca        1 MOL     -0.209165
    121 C41         8.5710   -1.7330    3.3380 ca        1 MOL     -0.209165
    122 C42         7.4480   -0.2740    5.3950 ca        1 MOL     -0.036661
    123 C43         7.7540   -2.3320    4.2740 ca        1 MOL     -0.036661
    124 C44         7.1590   -1.6270    5.3410 ca        1 MOL     -0.151793
    125 H51         8.1920   -1.0010    0.2670 hn        1 MOL      0.336828
    126 H52         8.1600    1.7990    1.3870 h1        1 MOL      0.112669
    127 H53        10.0920    1.1250    2.6910 hc        1 MOL      0.032822
    128 H54        10.2760   -0.3310    1.7970 hc        1 MOL      0.032822
    129 H55         8.3700    1.4860    4.4240 ha        1 MOL      0.123977
    130 H56         9.0370   -2.2900    2.5400 ha        1 MOL      0.123977
    131 H57         7.0660    0.2170    6.2820 ha        1 MOL      0.077740
    132 H58         7.7140   -3.4070    4.3470 ha        1 MOL      0.077740
    133 H59         6.6050   -2.0950    6.1410 ha        1 MOL      0.122492
    134 N12        10.2100    2.5990   -0.0620 n         1 MOL     -0.186090
    135 C45         9.8270    3.6980    0.7950 c3        1 MOL      0.216020
    136 C46         8.3110    4.0590    0.5890 c         1 MOL      0.237208
    137 O20         7.6670    4.3190    1.5970 o         1 MOL     -0.509683
    138 C47        10.6480    4.8560    0.4240 c3        1 MOL     -0.073358
    139 C48        11.9650    4.2650   -0.1160 c3        1 MOL     -0.170431
    140 C49        11.4250    2.9970   -0.8040 c3        1 MOL     -0.078348
    141 H60        10.1080    3.4690    1.8240 h1        1 MOL      0.020887
    142 H61        10.2470    5.4740   -0.3760 hc        1 MOL      0.058685
    143 H62        10.8560    5.4610    1.3030 hc        1 MOL      0.058685
    144 H63        12.4090    4.9340   -0.8560 hc        1 MOL      0.061266
    145 H64        12.6120    3.9690    0.7150 hc        1 MOL      0.061266
    146 H65        11.1510    3.2680   -1.8220 h1        1 MOL      0.081686
    147 H66        12.2830    2.3180   -0.8160 h1        1 MOL      0.081686
    148 N13         7.7580    3.8930   -0.5910 n         1 MOL     -0.471499
    149 C50         6.3830    4.3990   -0.9310 c3        1 MOL      0.122495
    150 C51         6.3760    5.9560   -0.6540 c         1 MOL      0.523716
    151 O21         6.6300    6.7290   -1.5380 o         1 MOL     -0.596214
    152 C52         5.9690    3.9860   -2.3830 c3        1 MOL      0.067403
    153 C53         5.8160    2.4900   -2.6750 c3        1 MOL     -0.235924
    154 C54         5.8500    2.3020   -4.1920 c         1 MOL      0.744907
    155 O22         6.9210    2.0000   -4.7320 o         1 MOL     -0.737241
    156 O23         4.7950    2.4760   -4.8760 o         1 MOL     -0.737241
    157 H67         8.2650    3.3680   -1.2880 hn        1 MOL      0.359981
    158 H68         5.6580    3.9340   -0.2780 h1        1 MOL      0.048039
    159 H69         6.7270    4.4940   -2.9920 hc        1 MOL      0.003991
    160 H70         5.0110    4.4470   -2.6090 hc        1 MOL      0.003991
    161 H71         4.8900    2.2020   -2.1850 hc        1 MOL      0.036688
    162 H72         6.6670    1.9110   -2.2970 hc        1 MOL      0.036688
    163 N14         5.8980    6.5210    0.4520 n         1 MOL     -0.323735
    164 C55         5.2280    5.8790    1.6150 c3        1 MOL     -0.127336
    165 H73         5.5690    4.8490    1.7060 h1        1 MOL      0.076064
    166 H74         5.4760    6.4260    2.5240 h1        1 MOL      0.076064
    167 H75         4.1490    5.8930    1.4650 h1        1 MOL      0.076064
    168 H76         5.8700    7.5310    0.3880 hn        1 MOL      0.244578
    169 Ca1        -5.9740    0.9620    1.1490 Ca        1 MOL      1.662630
    170 O24        -4.8140    2.6560   -0.6380 oh        1 MOL     -0.795618
    171 H77        -4.0610    3.2450   -0.6020 ho        1 MOL      0.396474
    172 H78        -4.6080    2.0420   -1.3390 ho        1 MOL      0.396474
    173 O25        -5.2240    3.0970    2.4630 oh        1 MOL     -0.795618
    174 H79        -4.2970    3.1010    2.7000 ho        1 MOL      0.396474
    175 H80        -5.6630    3.5630    3.1730 ho        1 MOL      0.396474
    176 O26        -5.6660    0.4170    3.6440 oh        1 MOL     -0.795618
    177 H81        -6.0520    1.0130    4.2860 ho        1 MOL      0.396474
    178 H82        -5.1900   -0.2290    4.1700 ho        1 MOL      0.396474
    179 O27        -3.2500    0.6170    1.3230 oh        1 MOL     -0.795618
    180 H83        -2.4350    0.3770    0.8930 ho        1 MOL      0.396474
    181 H84        -2.9860    0.9480    2.1760 ho        1 MOL      0.396474
@<TRIPOS>BOND
     1    1    2 1   
     2    1    4 1   
     3    1    5 1   
     4    1    6 1   
     5    2    3 2   
     6    2    7 1   
     7    7    8 1   
     8    7   15 1   
     9    8    9 1   
    10    8   11 1   
    11    8   16 1   
    12    9   10 2   
    13    9   19 1   
    14   11   12 1   
    15   11   17 1   
    16   11   18 1   
    17   12   13 1   
    18   12   14 1   
    19   19   20 1   
    20   19   24 1   
    21   20   21 1   
    22   20   23 1   
    23   20   25 1   
    24   21   22 2   
    25   21   29 1   
    26   23   26 1   
    27   23   27 1   
    28   23   28 1   
    29   29   30 1   
    30   29   37 1   
    31   30   31 1   
    32   30   33 1   
    33   30   38 1   
    34   31   32 2   
    35   31   41 1   
    36   33   34 1   
    37   33   39 1   
    38   33   40 1   
    39   34   35 1   
    40   34   36 1   
    41   41   42 1   
    42   41   45 1   
    43   42   43 1   
    44   42   46 1   
    45   42   47 1   
    46   43   44 2   
    47   43   48 1   
    48   48   49 1   
    49   48   56 1   
    50   49   50 1   
    51   49   52 1   
    52   49   57 1   
    53   50   51 2   
    54   50   62 1   
    55   52   53 1   
    56   52   58 1   
    57   52   59 1   
    58   53   54 1   
    59   53   55 2   
    60   54   60 1   
    61   54   61 1   
    62   62   63 1   
    63   62   66 1   
    64   63   64 1   
    65   63   67 1   
    66   63   68 1   
    67   64   65 2   
    68   64   69 1   
    69   69   70 1   
    70   69   76 1   
    71   70   71 1   
    72   70   73 1   
    73   70   77 1   
    74   71   72 2   
    75   71   83 1   
    76   73   74 1   
    77   73   75 1   
    78   73   78 1   
    79   74   80 1   
    80   74   81 1   
    81   74   82 1   
    82   75   79 1   
    83   83   84 1   
    84   83   91 1   
    85   84   85 1   
    86   84   87 1   
    87   84   92 1   
    88   85   86 2   
    89   85  102 1   
    90   87   88 1   
    91   87   89 1   
    92   87   93 1   
    93   88   90 1   
    94   88   94 1   
    95   88   95 1   
    96   89   96 1   
    97   89   97 1   
    98   89   98 1   
    99   90   99 1   
   100   90  100 1   
   101   90  101 1   
   102  102  103 1   
   103  102  110 1   
   104  103  104 1   
   105  103  106 1   
   106  103  111 1   
   107  104  105 2   
   108  104  114 1   
   109  106  107 1   
   110  106  112 1   
   111  106  113 1   
   112  107  108 1   
   113  107  109 1   
   114  114  115 1   
   115  114  125 1   
   116  115  116 1   
   117  115  118 1   
   118  115  126 1   
   119  116  117 2   
   120  116  134 1   
   121  118  119 1   
   122  118  127 1   
   123  118  128 1   
   124  119  120 ar  
   125  119  121 ar  
   126  120  122 ar  
   127  120  129 1   
   128  121  123 ar  
   129  121  130 1   
   130  122  124 ar  
   131  122  131 1   
   132  123  124 ar  
   133  123  132 1   
   134  124  133 1   
   135  134  135 1   
   136  134  140 1   
   137  135  136 1   
   138  135  138 1   
   139  135  141 1   
   140  136  137 2   
   141  136  148 1   
   142  138  139 1   
   143  138  142 1   
   144  138  143 1   
   145  139  140 1   
   146  139  144 1   
   147  139  145 1   
   148  140  146 1   
   149  140  147 1   
   150  148  149 1   
   151  148  157 1   
   152  149  150 1   
   153  149  152 1   
   154  149  158 1   
   155  150  151 2   
   156  150  163 1   
   157  152  153 1   
   158  152  159 1   
   159  152  160 1   
   160  153  154 1   
   161  153  161 1   
   162  153  162 1   
   163  154  155 1   
   164  154  156 1   
   165  163  164 1   
   166  163  168 1   
   167  164  165 1   
   168  164  166 1   
   169  164  167 1   
   170  170  171 1   
   171  170  172 1   
   172  173  174 1   
   173  173  175 1   
   174  176  177 1   
   175  176  178 1   
   176  179  180 1   
   177  179  181 1   
@<TRIPOS>SUBSTRUCTURE
     1 MOL         1 TEMP              0 ****  ****    0 ROOT
