@<TRIPOS>MOLECULE
MOL
  178   175     1     0     0
SMALL
resp


@<TRIPOS>ATOM
      1 C1          4.8490   -1.4790    2.7740 c3        1 MOL     -0.264910
      2 C2          6.0350   -0.5560    2.3390 c         1 MOL      0.711989
      3 O1          5.7720    0.1430    1.3250 o         1 MOL     -0.593311
      4 H1          5.2320   -2.3030    3.3770 hc        1 MOL      0.065889
      5 H2          4.1350   -0.9020    3.3610 hc        1 MOL      0.065889
      6 H3          4.3540   -1.8760    1.8880 hc        1 MOL      0.065889
      7 N1          7.2140   -0.5730    2.9180 n         1 MOL     -0.645367
      8 C3          8.4470    0.0720    2.2920 c3        1 MOL      0.242950
      9 C4          9.0610   -0.8180    1.2080 c         1 MOL      0.669477
     10 O2          9.5630   -1.8940    1.4490 o         1 MOL     -0.577932
     11 C5          9.4340    0.4170    3.4810 c3        1 MOL     -0.209959
     12 C6         10.7960    1.0360    2.9970 c         1 MOL      0.646524
     13 O3         11.8320    0.7410    3.6960 o         1 MOL     -0.702992
     14 O4         10.8190    1.6800    1.8930 o         1 MOL     -0.702992
     15 H4          7.4100   -1.2150    3.6740 hn        1 MOL      0.322353
     16 H5          8.1850    1.0520    1.8960 h1        1 MOL      0.018102
     17 H6          9.5820   -0.5290    4.0010 hc        1 MOL      0.018565
     18 H7          8.9420    1.0400    4.2310 hc        1 MOL      0.018565
     19 N2          8.9030   -0.3260   -0.0710 n         1 MOL     -0.509846
     20 C7          8.9690   -1.0880   -1.2610 c3        1 MOL      0.260453
     21 C8          7.5430   -1.6030   -1.7160 c         1 MOL      0.366498
     22 O5          7.4340   -2.2030   -2.7940 o         1 MOL     -0.544276
     23 C9          9.6890   -0.1100   -2.2390 c3        1 MOL     -0.303599
     24 H8          8.5160    0.6070   -0.0600 hn        1 MOL      0.245924
     25 H9          9.6640   -1.9160   -1.1940 h1        1 MOL      0.054569
     26 H10        10.7150    0.0680   -1.9090 hc        1 MOL      0.077507
     27 H11         9.6690   -0.5850   -3.2210 hc        1 MOL      0.077507
     28 H12         9.2610    0.8900   -2.3010 hc        1 MOL      0.077507
     29 N3          6.4860   -1.4050   -0.9810 n         1 MOL     -0.235907
     30 C10         5.1600   -1.8650   -1.2300 c3        1 MOL     -0.005388
     31 C11         4.5730   -1.5290   -2.6080 c         1 MOL      0.544854
     32 O6          3.8120   -2.3260   -3.1630 o         1 MOL     -0.494917
     33 C12         5.1330   -3.3610   -0.9210 c3        1 MOL     -0.207664
     34 C13         3.7810   -3.9050   -0.7070 c         1 MOL      0.805599
     35 O7          3.5990   -5.1490   -0.8460 o         1 MOL     -0.778844
     36 O8          2.8240   -3.2280   -0.3580 o         1 MOL     -0.778844
     37 H13         6.5790   -1.0480   -0.0460 hn        1 MOL      0.122237
     38 H14         4.5620   -1.3780   -0.4600 h1        1 MOL      0.085691
     39 H15         5.6670   -3.3950    0.0270 hc        1 MOL      0.053583
     40 H16         5.6990   -3.9950   -1.5940 hc        1 MOL      0.053583
     41 N4          4.8410   -0.3700   -3.1460 n         1 MOL     -0.331224
     42 C14         4.3480    0.1210   -4.4750 c3        1 MOL     -0.021072
     43 C15         3.1900    1.0800   -4.5120 c         1 MOL      0.666506
     44 O9          3.1190    1.7470   -5.5210 o         1 MOL     -0.610431
     45 H17         5.5730    0.2030   -2.7420 hn        1 MOL      0.252876
     46 H18         4.1600   -0.6850   -5.1810 h1        1 MOL      0.045991
     47 H19         5.1400    0.6990   -4.9390 h1        1 MOL      0.045991
     48 N5          2.3480    1.2410   -3.5300 n         1 MOL     -0.459728
     49 C16         1.1450    2.0720   -3.4420 c3        1 MOL      0.127022
     50 C17         1.4580    3.3300   -2.6510 c         1 MOL      0.554484
     51 O10         2.2700    3.4180   -1.7420 o         1 MOL     -0.519567
     52 C18         0.0140    1.2980   -2.7660 c3        1 MOL     -0.179007
     53 C19        -0.5940    0.1950   -3.6990 c         1 MOL      0.602565
     54 N6         -0.8030   -1.0120   -3.1840 n         1 MOL     -0.775308
     55 O11        -0.9080    0.4100   -4.8510 o         1 MOL     -0.584184
     56 H20         2.4650    0.6810   -2.7000 hn        1 MOL      0.200300
     57 H21         0.8160    2.3980   -4.4190 h1        1 MOL      0.026361
     58 H22        -0.8020    1.9880   -2.5670 hc        1 MOL      0.102046
     59 H23         0.3920    0.7800   -1.8770 hc        1 MOL      0.102046
     60 H24        -0.3920   -1.2050   -2.2830 hn        1 MOL      0.383948
     61 H25        -0.9330   -1.7820   -3.8190 hn        1 MOL      0.383948
     62 N7          0.8390    4.3840   -3.1460 n         1 MOL     -0.445277
     63 C20         0.9700    5.7030   -2.4640 c3        1 MOL     -0.117508
     64 C21        -0.3720    6.0410   -1.6450 c         1 MOL      0.607865
     65 O12        -1.4220    5.4400   -1.9640 o         1 MOL     -0.549623
     66 H26         0.0310    4.2870   -3.7490 hn        1 MOL      0.294491
     67 H27         0.9860    6.4730   -3.2320 h1        1 MOL      0.098704
     68 H28         1.8700    5.7770   -1.8550 h1        1 MOL      0.098704
     69 N8         -0.1910    6.8020   -0.6170 n         1 MOL     -0.555991
     70 C22        -1.2640    7.2320    0.3090 c3        1 MOL      0.000682
     71 C23        -1.6200    6.1090    1.3100 c         1 MOL      0.529133
     72 O13        -2.6830    6.1780    1.9560 o         1 MOL     -0.574774
     73 C24        -0.8890    8.5260    1.0390 c3        1 MOL      0.472812
     74 C25         0.2560    8.2800    1.9830 c3        1 MOL     -0.559374
     75 O14        -0.5750    9.4790    0.0880 oh        1 MOL     -0.632341
     76 H29         0.7520    7.1620   -0.5780 hn        1 MOL      0.270949
     77 H30        -2.1970    7.5030   -0.1830 h1        1 MOL      0.107766
     78 H31        -1.8250    8.7980    1.5430 h1        1 MOL      0.020921
     79 H32         0.3630    9.3690   -0.0980 ho        1 MOL      0.392078
     80 H33        -0.1300    7.7680    2.8560 hc        1 MOL      0.145766
     81 H34         1.1150    7.7480    1.5600 hc        1 MOL      0.145766
     82 H35         0.6700    9.2470    2.2980 hc        1 MOL      0.145766
     83 N9         -0.7200    5.1080    1.5050 n         1 MOL     -0.547849
     84 C26        -0.9930    3.8050    2.1620 c3        1 MOL      0.110463
     85 C27        -0.8290    2.7200    1.1100 c         1 MOL      0.594052
     86 O15         0.1680    2.6920    0.4140 o         1 MOL     -0.527026
     87 C28        -0.2400    3.6270    3.5250 c3        1 MOL     -0.025508
     88 C29        -0.8130    4.6360    4.5960 c3        1 MOL      0.214575
     89 C30        -0.3720    2.1800    4.0520 c3        1 MOL      0.015504
     90 C31        -0.2070    4.6160    5.9380 c3        1 MOL     -0.273193
     91 H36         0.0710    4.9950    0.8820 hn        1 MOL      0.294893
     92 H37        -2.0570    3.7550    2.4000 h1        1 MOL      0.072645
     93 H38         0.8240    3.8110    3.3790 hc        1 MOL      0.046703
     94 H39        -1.8990    4.4990    4.6180 hc        1 MOL     -0.034437
     95 H40        -0.5580    5.6070    4.1830 hc        1 MOL     -0.034437
     96 H41        -0.2720    2.1160    5.1360 hc        1 MOL     -0.007916
     97 H42        -1.3950    1.8160    3.9170 hc        1 MOL     -0.007916
     98 H43         0.1420    1.4310    3.4520 hc        1 MOL     -0.007916
     99 H44         0.8210    4.2680    5.9010 hc        1 MOL      0.058444
    100 H45        -0.4180    5.5770    6.4060 hc        1 MOL      0.058444
    101 H46        -0.6790    3.8090    6.4920 hc        1 MOL      0.058444
    102 N10        -1.7970    1.8070    1.1100 n         1 MOL     -0.583392
    103 C32        -1.7780    0.5370    0.3610 c3        1 MOL      0.624222
    104 C33        -3.1650    0.0480    0.0190 c         1 MOL      0.365605
    105 O16        -3.3660   -1.1480   -0.2350 o         1 MOL     -0.387154
    106 C34        -1.1020   -0.4280    1.3280 c3        1 MOL     -0.281822
    107 C35        -0.6290   -1.7880    0.6800 c         1 MOL      0.751405
    108 O17        -0.4750   -2.8270    1.3770 o         1 MOL     -0.730859
    109 O18        -0.2500   -1.8740   -0.4970 o         1 MOL     -0.730859
    110 H47        -2.6350    2.1140    1.5800 hn        1 MOL      0.229414
    111 H48        -1.1910    0.6550   -0.5460 h1        1 MOL     -0.153105
    112 H49        -1.8090   -0.5540    2.1570 hc        1 MOL      0.068724
    113 H50        -0.3240    0.0650    1.9140 hc        1 MOL      0.068724
    114 N11        -4.1460    0.9810   -0.2030 n         1 MOL     -0.515595
    115 C36        -5.4830    0.6630   -0.6080 c3        1 MOL      0.314446
    116 C37        -6.1330   -0.3200    0.3500 c         1 MOL      0.151941
    117 O19        -6.0360   -0.2070    1.5690 o         1 MOL     -0.414163
    118 C38        -6.4270    1.8720   -0.6300 c3        1 MOL     -0.362479
    119 C39        -7.6810    1.7530   -1.4540 ca        1 MOL      0.129796
    120 C40        -7.6550    1.9850   -2.8530 ca        1 MOL     -0.159377
    121 C41        -8.8810    1.4620   -0.8050 ca        1 MOL     -0.159377
    122 C42        -8.8210    1.7640   -3.6870 ca        1 MOL     -0.145021
    123 C43       -10.1090    1.3530   -1.5850 ca        1 MOL     -0.145021
    124 C44       -10.0410    1.4270   -3.0280 ca        1 MOL     -0.109991
    125 H51        -3.8620    1.9330   -0.3980 hn        1 MOL      0.292764
    126 H52        -5.4140    0.2000   -1.5960 h1        1 MOL      0.025004
    127 H53        -5.8160    2.7040   -0.9840 hc        1 MOL      0.131274
    128 H54        -6.7910    2.0540    0.3820 hc        1 MOL      0.131274
    129 H55        -6.7270    2.2750   -3.3280 ha        1 MOL      0.140238
    130 H56        -8.8880    1.3270    0.2640 ha        1 MOL      0.140238
    131 H57        -8.7620    1.7850   -4.7630 ha        1 MOL      0.133806
    132 H58       -11.0090    1.0880   -1.0590 ha        1 MOL      0.133806
    133 H59       -10.9430    1.2180   -3.5960 ha        1 MOL      0.108455
    134 N12        -6.9230   -1.2920   -0.1820 n         1 MOL      0.000343
    135 C45        -7.8370   -2.1310    0.6650 c3        1 MOL      0.077642
    136 C46        -7.1780   -3.1550    1.6100 c         1 MOL      0.257268
    137 O20        -7.7660   -3.5950    2.6110 o         1 MOL     -0.480603
    138 C47        -8.7750   -2.8000   -0.3000 c3        1 MOL      0.053280
    139 C48        -8.7630   -2.0780   -1.6000 c3        1 MOL      0.001078
    140 C49        -7.2660   -1.6090   -1.4910 c3        1 MOL     -0.321674
    141 H60        -8.3910   -1.4240    1.2840 h1        1 MOL      0.058092
    142 H61        -8.4170   -3.8070   -0.5020 hc        1 MOL      0.009731
    143 H62        -9.7920   -2.8590    0.1140 hc        1 MOL      0.009731
    144 H63        -9.0100   -2.8410   -2.3370 hc        1 MOL      0.023573
    145 H64        -9.3960   -1.1990   -1.6530 hc        1 MOL      0.023573
    146 H65        -6.7760   -2.4970   -1.8870 h1        1 MOL      0.124644
    147 H66        -7.1110   -0.7850   -2.1910 h1        1 MOL      0.124644
    148 N13        -5.9530   -3.6040    1.2850 n         1 MOL     -0.212501
    149 C50        -5.1750   -4.2620    2.3450 c3        1 MOL     -0.350320
    150 C51        -5.0860   -3.5160    3.6880 c         1 MOL      0.615918
    151 O21        -4.9340   -4.1650    4.6930 o         1 MOL     -0.548253
    152 C52        -3.7860   -4.5030    1.7850 c3        1 MOL      0.301237
    153 C53        -3.6330   -5.5390    0.6690 c3        1 MOL     -0.204183
    154 C54        -2.2330   -5.4140    0.0520 c         1 MOL      0.688125
    155 O22        -1.9410   -4.8420   -1.0120 o         1 MOL     -0.757195
    156 O23        -1.2560   -5.8450    0.7180 o         1 MOL     -0.757195
    157 H67        -5.4860   -3.2450    0.4610 hn        1 MOL      0.249898
    158 H68        -5.6040   -5.2480    2.5190 h1        1 MOL      0.166572
    159 H69        -2.9960   -4.6520    2.5180 hc        1 MOL     -0.046082
    160 H70        -3.4870   -3.5480    1.3420 hc        1 MOL     -0.046082
    161 H71        -4.2120   -5.2330   -0.2080 hc        1 MOL      0.022087
    162 H72        -3.9460   -6.5170    1.0210 hc        1 MOL      0.022087
    163 N14        -5.1090   -2.1630    3.6270 n         1 MOL     -0.233318
    164 C55        -4.7740   -1.3760    4.8150 c3        1 MOL     -0.298480
    165 H73        -4.5280   -0.3570    4.5180 h1        1 MOL      0.108345
    166 H74        -5.6270   -1.3610    5.4940 h1        1 MOL      0.108345
    167 H75        -3.9170   -1.8240    5.3190 h1        1 MOL      0.108345
    168 H76        -5.3410   -1.6550    2.7840 hn        1 MOL      0.225130
    169 Ca1         0.6280   -4.5760   -0.2360 Ca        1 MOL      1.779320
    170 O24         1.0890   -6.9790   -1.0540 oh        1 MOL     -0.813300
    171 H77         1.4280   -7.0640   -1.9510 ho        1 MOL      0.398475
    172 H78         0.9080   -7.8740   -0.7860 ho        1 MOL      0.398475
    173 O25         0.6030   -4.8000   -2.9440 oh        1 MOL     -0.813300
    174 H79         0.0340   -5.5380   -3.1700 ho        1 MOL      0.398475
    175 H80         1.2010   -4.7170   -3.6790 ho        1 MOL      0.398475
    176 O26         2.0110   -5.2400    2.1340 oh        1 MOL     -0.813300
    177 H81         1.7210   -4.9130    2.9860 ho        1 MOL      0.398475
    178 H82         2.7210   -5.8530    2.3370 ho        1 MOL      0.398475
@<TRIPOS>BOND
     1    1    2 1   
     2    1    4 1   
     3    1    5 1   
     4    1    6 1   
     5    2    3 2   
     6    2    7 1   
     7    7    8 1   
     8    7   15 1   
     9    8    9 1   
    10    8   11 1   
    11    8   16 1   
    12    9   10 2   
    13    9   19 1   
    14   11   12 1   
    15   11   17 1   
    16   11   18 1   
    17   12   13 1   
    18   12   14 1   
    19   19   20 1   
    20   19   24 1   
    21   20   21 1   
    22   20   23 1   
    23   20   25 1   
    24   21   22 2   
    25   21   29 1   
    26   23   26 1   
    27   23   27 1   
    28   23   28 1   
    29   29   30 1   
    30   29   37 1   
    31   30   31 1   
    32   30   33 1   
    33   30   38 1   
    34   31   32 2   
    35   31   41 1   
    36   33   34 1   
    37   33   39 1   
    38   33   40 1   
    39   34   35 1   
    40   34   36 1   
    41   41   42 1   
    42   41   45 1   
    43   42   43 1   
    44   42   46 1   
    45   42   47 1   
    46   43   44 2   
    47   43   48 1   
    48   48   49 1   
    49   48   56 1   
    50   49   50 1   
    51   49   52 1   
    52   49   57 1   
    53   50   51 2   
    54   50   62 1   
    55   52   53 1   
    56   52   58 1   
    57   52   59 1   
    58   53   54 1   
    59   53   55 2   
    60   54   60 1   
    61   54   61 1   
    62   62   63 1   
    63   62   66 1   
    64   63   64 1   
    65   63   67 1   
    66   63   68 1   
    67   64   65 2   
    68   64   69 1   
    69   69   70 1   
    70   69   76 1   
    71   70   71 1   
    72   70   73 1   
    73   70   77 1   
    74   71   72 2   
    75   71   83 1   
    76   73   74 1   
    77   73   75 1   
    78   73   78 1   
    79   74   80 1   
    80   74   81 1   
    81   74   82 1   
    82   75   79 1   
    83   83   84 1   
    84   83   91 1   
    85   84   85 1   
    86   84   87 1   
    87   84   92 1   
    88   85   86 2   
    89   85  102 1   
    90   87   88 1   
    91   87   89 1   
    92   87   93 1   
    93   88   90 1   
    94   88   94 1   
    95   88   95 1   
    96   89   96 1   
    97   89   97 1   
    98   89   98 1   
    99   90   99 1   
   100   90  100 1   
   101   90  101 1   
   102  102  103 1   
   103  102  110 1   
   104  103  104 1   
   105  103  106 1   
   106  103  111 1   
   107  104  105 2   
   108  104  114 1   
   109  106  107 1   
   110  106  112 1   
   111  106  113 1   
   112  107  108 1   
   113  107  109 1   
   114  114  115 1   
   115  114  125 1   
   116  115  116 1   
   117  115  118 1   
   118  115  126 1   
   119  116  117 2   
   120  116  134 1   
   121  118  119 1   
   122  118  127 1   
   123  118  128 1   
   124  119  120 ar  
   125  119  121 ar  
   126  120  122 ar  
   127  120  129 1   
   128  121  123 ar  
   129  121  130 1   
   130  122  124 ar  
   131  122  131 1   
   132  123  124 ar  
   133  123  132 1   
   134  124  133 1   
   135  134  135 1   
   136  134  140 1   
   137  135  136 1   
   138  135  138 1   
   139  135  141 1   
   140  136  137 2   
   141  136  148 1   
   142  138  139 1   
   143  138  142 1   
   144  138  143 1   
   145  139  140 1   
   146  139  144 1   
   147  139  145 1   
   148  140  146 1   
   149  140  147 1   
   150  148  149 1   
   151  148  157 1   
   152  149  150 1   
   153  149  152 1   
   154  149  158 1   
   155  150  151 2   
   156  150  163 1   
   157  152  153 1   
   158  152  159 1   
   159  152  160 1   
   160  153  154 1   
   161  153  161 1   
   162  153  162 1   
   163  154  155 1   
   164  154  156 1   
   165  163  164 1   
   166  163  168 1   
   167  164  165 1   
   168  164  166 1   
   169  164  167 1   
   170  170  171 1   
   171  170  172 1   
   172  173  174 1   
   173  173  175 1   
   174  176  177 1   
   175  176  178 1   
@<TRIPOS>SUBSTRUCTURE
     1 MOL         1 TEMP              0 ****  ****    0 ROOT
