@<TRIPOS>MOLECULE
MOL
  191   184     1     0     0
SMALL
resp


@<TRIPOS>ATOM
      1 C1          6.3050    4.1920   -0.0840 c3        1 MOL     -0.184914
      2 C2          6.5740    2.7920   -0.6210 c         1 MOL      0.794413
      3 O1          6.0650    1.7690   -0.1700 o         1 MOL     -0.675943
      4 H1          5.5230    4.1460    0.6730 hc        1 MOL      0.039396
      5 H2          7.2160    4.5930    0.3590 hc        1 MOL      0.039396
      6 H3          5.9820    4.8380   -0.9010 hc        1 MOL      0.039396
      7 N1          7.6290    2.7570   -1.4270 n         1 MOL     -0.729866
      8 C3          8.2370    1.5630   -2.0960 c3        1 MOL      0.412132
      9 C4          8.9030    0.6420   -1.0460 c         1 MOL      0.356685
     10 O2          9.9040   -0.0020   -1.3940 o         1 MOL     -0.484889
     11 C5          7.2360    0.9710   -2.9830 c3        1 MOL     -0.319524
     12 C6          7.8910    0.3890   -4.2370 c         1 MOL      0.700754
     13 O3          7.2160   -0.4500   -4.8350 o         1 MOL     -0.675314
     14 O4          9.0120    0.8040   -4.5080 o         1 MOL     -0.675314
     15 H4          8.0840    3.6370   -1.6040 hn        1 MOL      0.336161
     16 H5          9.1040    1.9620   -2.6270 h1        1 MOL      0.019534
     17 H6          6.4540    1.6520   -3.3180 hc        1 MOL      0.104191
     18 H7          6.6910    0.1640   -2.4860 hc        1 MOL      0.104191
     19 N2          8.4610    0.5610    0.2370 n         1 MOL     -0.286954
     20 C7          8.8490   -0.3310    1.3370 c3        1 MOL      0.091221
     21 C8          7.5390   -0.9830    1.9620 c         1 MOL      0.457471
     22 O5          7.6520   -1.6890    3.0040 o         1 MOL     -0.570665
     23 C9          9.7020    0.3020    2.4200 c3        1 MOL     -0.193150
     24 C10         9.2140    1.6830    2.9490 c3        1 MOL      0.127418
     25 C11        10.0190    2.0610    4.1880 c3        1 MOL      0.079509
     26 C12         9.3090    3.2730    4.7090 c3        1 MOL     -0.036684
     27 N3          8.4410    3.0940    5.9110 n4        1 MOL     -0.227747
     28 H8          7.7580    1.2530    0.4520 hn        1 MOL      0.168964
     29 H9          9.3700   -1.1460    0.8340 h1        1 MOL      0.115079
     30 H10        10.7280    0.3510    2.0530 hc        1 MOL      0.056424
     31 H11         9.7670   -0.3950    3.2550 hc        1 MOL      0.056424
     32 H12         8.1610    1.7140    3.2630 hc        1 MOL     -0.020471
     33 H13         9.2710    2.3650    2.0940 hc        1 MOL     -0.020471
     34 H14        11.0630    2.1790    3.9040 hc        1 MOL      0.017753
     35 H15        10.0030    1.2660    4.9380 hc        1 MOL      0.017753
     36 H16         8.7340    3.5860    3.8460 hx        1 MOL      0.060871
     37 H17        10.0830    4.0120    4.9520 hx        1 MOL      0.060871
     38 H18         7.5710    2.6250    5.6910 hn        1 MOL      0.240083
     39 H19         8.9850    2.6520    6.6410 hn        1 MOL      0.240083
     40 H20         8.2700    4.0290    6.2600 hn        1 MOL      0.240083
     41 N4          6.4150   -0.7810    1.3100 n         1 MOL     -0.257231
     42 C13         5.1030   -1.3930    1.7040 c3        1 MOL     -0.114390
     43 C14         4.9160   -2.8280    1.0560 c         1 MOL      0.580542
     44 O6          5.4280   -3.0220   -0.0420 o         1 MOL     -0.471685
     45 C15         3.9610   -0.4290    1.3220 c3        1 MOL     -0.063739
     46 C16         2.5230   -0.9170    1.6380 c         1 MOL      0.484282
     47 O7          1.9860   -0.7230    2.7760 o         1 MOL     -0.671378
     48 O8          1.8350   -1.5450    0.8210 o         1 MOL     -0.671378
     49 H21         6.5350   -0.2110    0.4920 hn        1 MOL      0.171497
     50 H22         5.0740   -1.4950    2.7820 h1        1 MOL      0.061488
     51 H23         3.9550   -0.2790    0.2380 hc        1 MOL      0.082039
     52 H24         4.0520    0.5440    1.8100 hc        1 MOL      0.082039
     53 N5          4.2020   -3.7000    1.7700 n         1 MOL     -0.267267
     54 C17         3.9910   -5.1170    1.4990 c3        1 MOL     -0.358502
     55 C18         3.0930   -5.4160    0.2490 c         1 MOL      0.596322
     56 O9          3.3060   -6.4260   -0.4030 o         1 MOL     -0.541526
     57 H25         3.8800   -3.3740    2.6750 hn        1 MOL      0.237865
     58 H26         3.4600   -5.4770    2.3850 h1        1 MOL      0.164026
     59 H27         4.9470   -5.5980    1.2550 h1        1 MOL      0.164026
     60 N6          2.1670   -4.5440   -0.1660 n         1 MOL     -0.342937
     61 C19         1.6340   -4.5650   -1.5060 c3        1 MOL      0.065846
     62 C20         1.8880   -3.2800   -2.3730 c         1 MOL      0.326633
     63 O10         1.1460   -3.0590   -3.3120 o         1 MOL     -0.466697
     64 C21         0.0790   -4.9430   -1.3730 c3        1 MOL     -0.339595
     65 C22        -0.8670   -3.9000   -0.8260 c         1 MOL      0.658570
     66 N7         -2.1510   -4.0820   -1.0470 n         1 MOL     -0.828837
     67 O11        -0.5490   -2.9560   -0.1040 o         1 MOL     -0.537056
     68 H28         2.0460   -3.6940    0.3630 hn        1 MOL      0.162877
     69 H29         2.0160   -5.4280   -2.0600 h1        1 MOL      0.130071
     70 H30        -0.0910   -5.9160   -0.9010 hc        1 MOL      0.127028
     71 H31        -0.1980   -5.0150   -2.4290 hc        1 MOL      0.127028
     72 H32        -2.4540   -5.0070   -1.3080 hn        1 MOL      0.372938
     73 H33        -2.8230   -3.4210   -0.6770 hn        1 MOL      0.372938
     74 N8          2.9500   -2.5880   -2.0450 n         1 MOL     -0.103179
     75 C23         3.3680   -1.4290   -2.7860 c3        1 MOL     -0.031922
     76 C24         2.7990   -0.0120   -2.5710 c         1 MOL      0.429377
     77 O12         3.1240    0.9090   -3.3050 o         1 MOL     -0.497010
     78 H34         3.6190   -3.0380   -1.4330 hn        1 MOL      0.190754
     79 H35         3.3030   -1.7250   -3.8350 h1        1 MOL      0.081396
     80 H36         4.4410   -1.3070   -2.6090 h1        1 MOL      0.081396
     81 N9          1.8700    0.1790   -1.5920 n         1 MOL     -0.438276
     82 C25         1.2080    1.4670   -1.3980 c3        1 MOL      0.242109
     83 C26        -0.2330    1.2000   -0.7800 c         1 MOL      0.248251
     84 O13        -0.4750    0.3160    0.0500 o         1 MOL     -0.389904
     85 C27         2.0710    2.3270   -0.4860 c3        1 MOL      0.103305
     86 C28         1.5660    3.7560   -0.3570 ca        1 MOL     -0.046256
     87 C29         1.6190    4.5770   -1.5210 ca        1 MOL     -0.163590
     88 C30         0.9260    4.2200    0.8200 ca        1 MOL     -0.163590
     89 C31         0.9900    5.8470   -1.5080 ca        1 MOL     -0.222671
     90 C32         0.3890    5.5210    0.8160 ca        1 MOL     -0.222671
     91 C33         0.3620    6.2970   -0.3640 ca        1 MOL      0.324961
     92 O14        -0.2140    7.5190   -0.3920 oh        1 MOL     -0.450262
     93 H37         1.6800   -0.6790   -1.0880 hn        1 MOL      0.265221
     94 H38         1.1170    1.9980   -2.3400 h1        1 MOL      0.047925
     95 H39         3.1010    2.2450   -0.8300 hc        1 MOL     -0.004126
     96 H40         2.2080    1.8390    0.4810 hc        1 MOL     -0.004126
     97 H41         2.1120    4.1160   -2.3650 ha        1 MOL      0.133865
     98 H42         0.5980    3.5400    1.5950 ha        1 MOL      0.133865
     99 H43         0.8220    6.4680   -2.3740 ha        1 MOL      0.137244
    100 H44        -0.0790    5.9190    1.7050 ha        1 MOL      0.137244
    101 H45        -0.6080    7.7380    0.4560 ho        1 MOL      0.340200
    102 N10        -1.1720    2.0540   -1.2260 n         1 MOL     -0.336125
    103 C34        -2.6200    1.9890   -0.8930 c3        1 MOL     -0.408765
    104 C35        -3.2050    0.7090   -1.5260 c         1 MOL      0.235611
    105 O15        -4.0820    0.0380   -0.9740 o         1 MOL     -0.423578
    106 C36        -3.3430    3.2800   -1.3670 c3        1 MOL      0.391639
    107 C37        -2.7830    4.4710   -0.5650 c3        1 MOL     -0.189189
    108 C38        -4.8840    3.1320   -1.1800 c3        1 MOL     -0.498316
    109 C39        -3.4540    5.8070   -0.8730 c3        1 MOL     -0.077548
    110 H46        -0.8850    2.8380   -1.7910 hn        1 MOL      0.300180
    111 H47        -2.7030    1.8730    0.1920 h1        1 MOL      0.190895
    112 H48        -3.1340    3.4630   -2.4250 hc        1 MOL     -0.020465
    113 H49        -1.7570    4.6650   -0.8610 hc        1 MOL      0.060115
    114 H50        -2.9990    4.3610    0.4980 hc        1 MOL      0.060115
    115 H51        -5.4770    4.0260   -1.3720 hc        1 MOL      0.154167
    116 H52        -5.1980    2.3730   -1.8970 hc        1 MOL      0.154167
    117 H53        -4.9450    2.8300   -0.1390 hc        1 MOL      0.154167
    118 H54        -2.9970    6.6240   -0.3210 hc        1 MOL      0.029891
    119 H55        -3.3920    6.0680   -1.9330 hc        1 MOL      0.029891
    120 H56        -4.5040    5.8540   -0.5820 hc        1 MOL      0.029891
    121 N11        -2.6550    0.2400   -2.6580 n         1 MOL     -0.057409
    122 C40        -2.9220   -1.0880   -3.2370 c3        1 MOL     -0.098760
    123 C41        -4.4020   -1.3830   -3.4840 c         1 MOL      0.325426
    124 O16        -4.9100   -2.4250   -3.1570 o         1 MOL     -0.438414
    125 C42        -1.9810   -1.3710   -4.4310 c3        1 MOL      0.165297
    126 O17        -0.6840   -1.1550   -3.8430 oh        1 MOL     -0.534717
    127 H57        -1.8210    0.6960   -3.0270 hn        1 MOL      0.203520
    128 H58        -2.6720   -1.8610   -2.4970 h1        1 MOL      0.173511
    129 H59        -2.2720   -0.6880   -5.2210 h1        1 MOL      0.033749
    130 H60        -2.0840   -2.3880   -4.7870 h1        1 MOL      0.033749
    131 H61        -0.0380   -1.7610   -4.2220 ho        1 MOL      0.373288
    132 N12        -5.1780   -0.3930   -4.0220 n         1 MOL     -0.308334
    133 C43        -6.6190   -0.3290   -4.2700 c3        1 MOL      0.313905
    134 C44        -7.5230   -0.6290   -3.0170 c         1 MOL      0.442828
    135 O18        -8.6360   -1.1470   -3.1760 o         1 MOL     -0.529645
    136 C45        -6.9350   -1.1680   -5.5140 c3        1 MOL     -0.403540
    137 H62        -4.7890    0.4900   -4.3010 hn        1 MOL      0.206625
    138 H63        -6.8030    0.7070   -4.5420 h1        1 MOL      0.020208
    139 H64        -6.5850   -2.1940   -5.3930 hc        1 MOL      0.109519
    140 H65        -7.9980   -1.0610   -5.7070 hc        1 MOL      0.109519
    141 H66        -6.3930   -0.6730   -6.3240 hc        1 MOL      0.109519
    142 N13        -7.0950   -0.3550   -1.7960 n         1 MOL     -0.542958
    143 C46        -7.6600   -0.7980   -0.5080 c3        1 MOL      0.556521
    144 C47        -8.2030    0.2240    0.4140 c         1 MOL      0.438245
    145 O19        -7.5400    1.3060    0.5820 o         1 MOL     -0.556282
    146 C48        -6.7000   -1.8150    0.1480 c3        1 MOL     -0.228319
    147 H67        -6.1810    0.0740   -1.7780 hn        1 MOL      0.148734
    148 H68        -8.6040   -1.2930   -0.7220 h1        1 MOL     -0.034281
    149 H69        -6.3370   -2.5720   -0.5430 hc        1 MOL      0.045097
    150 H70        -5.8530   -1.2300    0.4860 hc        1 MOL      0.045097
    151 H71        -7.2800   -2.2070    0.9890 hc        1 MOL      0.045097
    152 N14        -9.2770   -0.0920    1.1620 n         1 MOL     -0.512028
    153 C49        -9.8760    0.7520    2.2570 c3        1 MOL     -0.035222
    154 C50       -10.3640    2.1990    1.8520 c         1 MOL      0.389716
    155 O20       -10.5710    3.0950    2.6830 o         1 MOL     -0.492661
    156 C51        -8.9910    0.7480    3.4650 c3        1 MOL      0.125113
    157 C52        -8.7050   -0.6700    4.0510 c3        1 MOL     -0.076040
    158 C53       -10.0040   -1.3730    4.3860 c         1 MOL      0.631112
    159 O21       -10.5870   -0.9200    5.4180 o         1 MOL     -0.654254
    160 O22       -10.4810   -2.2630    3.6190 o         1 MOL     -0.654254
    161 H72        -9.6090   -1.0420    1.0940 hn        1 MOL      0.290634
    162 H73       -10.7920    0.2810    2.6040 h1        1 MOL      0.136277
    163 H74        -9.4390    1.3060    4.2850 hc        1 MOL      0.007564
    164 H75        -8.0320    1.2470    3.3230 hc        1 MOL      0.007564
    165 H76        -8.0160   -0.6820    4.8920 hc        1 MOL     -0.039661
    166 H77        -8.1650   -1.1630    3.2440 hc        1 MOL     -0.039661
    167 N15       -10.5090    2.4440    0.5380 n         1 MOL     -0.248735
    168 C54       -10.8230    3.8050   -0.0040 c3        1 MOL     -0.019400
    169 H78       -10.9480    4.5050    0.8230 h1        1 MOL      0.048049
    170 H79       -10.0060    4.1400   -0.6420 h1        1 MOL      0.048049
    171 H80       -11.7440    3.7630   -0.5860 h1        1 MOL      0.048049
    172 H81       -10.5170    1.7110   -0.1540 hn        1 MOL      0.229782
    173 Ca1        -0.4620   -1.5420    2.0870 Ca        1 MOL      1.731115
    174 O23        -1.8560   -3.7440    2.7210 oh        1 MOL     -0.794987
    175 O24        -2.3800   -1.1280    4.1020 oh        1 MOL     -0.794987
    176 H82        -2.2590   -3.9440    1.8790 ho        1 MOL      0.397963
    177 H83        -2.2230   -0.4580    4.7720 ho        1 MOL      0.397963
    178 H84        -1.3970   -4.5440    2.9660 ho        1 MOL      0.397963
    179 H85        -3.2790   -1.4070    4.2540 ho        1 MOL      0.397963
    180 O25         0.1930   -1.9790    4.8510 oh        1 MOL     -0.794987
    181 H86         0.2280   -2.9230    4.9580 ho        1 MOL      0.397963
    182 H87        -0.2080   -1.6630    5.6600 ho        1 MOL      0.397963
    183 O26        -2.9950   -1.4670    1.0270 oh        1 MOL     -0.794987
    184 H88        -3.5210   -0.8920    0.4760 ho        1 MOL      0.397963
    185 H89        -3.6210   -1.8230    1.6630 ho        1 MOL      0.397963
    186 O27         1.0460   -3.7470    2.8420 oh        1 MOL     -0.794987
    187 H90         0.9980   -4.6340    3.1900 ho        1 MOL      0.397963
    188 H91         1.7750   -3.3420    3.3090 ho        1 MOL      0.397963
    189 O28        -0.6990    0.9030    2.9450 oh        1 MOL     -0.794987
    190 H92        -1.4590    1.4700    2.8280 ho        1 MOL      0.397963
    191 H93        -0.0700    1.4360    3.4240 ho        1 MOL      0.397963
@<TRIPOS>BOND
     1    1    2 1   
     2    1    4 1   
     3    1    5 1   
     4    1    6 1   
     5    2    3 2   
     6    2    7 1   
     7    7    8 1   
     8    7   15 1   
     9    8    9 1   
    10    8   11 1   
    11    8   16 1   
    12    9   10 2   
    13    9   19 1   
    14   11   12 1   
    15   11   17 1   
    16   11   18 1   
    17   12   13 1   
    18   12   14 1   
    19   19   20 1   
    20   19   28 1   
    21   20   21 1   
    22   20   23 1   
    23   20   29 1   
    24   21   22 2   
    25   21   41 1   
    26   23   24 1   
    27   23   30 1   
    28   23   31 1   
    29   24   25 1   
    30   24   32 1   
    31   24   33 1   
    32   25   26 1   
    33   25   34 1   
    34   25   35 1   
    35   26   27 1   
    36   26   36 1   
    37   26   37 1   
    38   27   38 1   
    39   27   39 1   
    40   27   40 1   
    41   41   42 1   
    42   41   49 1   
    43   42   43 1   
    44   42   45 1   
    45   42   50 1   
    46   43   44 2   
    47   43   53 1   
    48   45   46 1   
    49   45   51 1   
    50   45   52 1   
    51   46   47 1   
    52   46   48 1   
    53   53   54 1   
    54   53   57 1   
    55   54   55 1   
    56   54   58 1   
    57   54   59 1   
    58   55   56 2   
    59   55   60 1   
    60   60   61 1   
    61   60   68 1   
    62   61   62 1   
    63   61   64 1   
    64   61   69 1   
    65   62   63 2   
    66   62   74 1   
    67   64   65 1   
    68   64   70 1   
    69   64   71 1   
    70   65   66 1   
    71   65   67 2   
    72   66   72 1   
    73   66   73 1   
    74   74   75 1   
    75   74   78 1   
    76   75   76 1   
    77   75   79 1   
    78   75   80 1   
    79   76   77 2   
    80   76   81 1   
    81   81   82 1   
    82   81   93 1   
    83   82   83 1   
    84   82   85 1   
    85   82   94 1   
    86   83   84 2   
    87   83  102 1   
    88   85   86 1   
    89   85   95 1   
    90   85   96 1   
    91   86   87 ar  
    92   86   88 ar  
    93   87   89 ar  
    94   87   97 1   
    95   88   90 ar  
    96   88   98 1   
    97   89   91 ar  
    98   89   99 1   
    99   90   91 ar  
   100   90  100 1   
   101   91   92 1   
   102   92  101 1   
   103  102  103 1   
   104  102  110 1   
   105  103  104 1   
   106  103  106 1   
   107  103  111 1   
   108  104  105 2   
   109  104  121 1   
   110  106  107 1   
   111  106  108 1   
   112  106  112 1   
   113  107  109 1   
   114  107  113 1   
   115  107  114 1   
   116  108  115 1   
   117  108  116 1   
   118  108  117 1   
   119  109  118 1   
   120  109  119 1   
   121  109  120 1   
   122  121  122 1   
   123  121  127 1   
   124  122  123 1   
   125  122  125 1   
   126  122  128 1   
   127  123  124 2   
   128  123  132 1   
   129  125  126 1   
   130  125  129 1   
   131  125  130 1   
   132  126  131 1   
   133  132  133 1   
   134  132  137 1   
   135  133  134 1   
   136  133  136 1   
   137  133  138 1   
   138  134  135 2   
   139  134  142 1   
   140  136  139 1   
   141  136  140 1   
   142  136  141 1   
   143  142  143 1   
   144  142  147 1   
   145  143  144 1   
   146  143  146 1   
   147  143  148 1   
   148  144  145 2   
   149  144  152 1   
   150  146  149 1   
   151  146  150 1   
   152  146  151 1   
   153  152  153 1   
   154  152  161 1   
   155  153  154 1   
   156  153  156 1   
   157  153  162 1   
   158  154  155 2   
   159  154  167 1   
   160  156  157 1   
   161  156  163 1   
   162  156  164 1   
   163  157  158 1   
   164  157  165 1   
   165  157  166 1   
   166  158  159 1   
   167  158  160 1   
   168  167  168 1   
   169  167  172 1   
   170  168  169 1   
   171  168  170 1   
   172  168  171 1   
   173  174  176 1   
   174  174  178 1   
   175  175  177 1   
   176  175  179 1   
   177  180  181 1   
   178  180  182 1   
   179  183  184 1   
   180  183  185 1   
   181  186  187 1   
   182  186  188 1   
   183  189  190 1   
   184  189  191 1   
@<TRIPOS>SUBSTRUCTURE
     1 MOL         1 TEMP              0 ****  ****    0 ROOT
