@<TRIPOS>MOLECULE
MOL
  188   182     1     0     0
SMALL
resp


@<TRIPOS>ATOM
      1 C1          7.6770    4.7500    2.4940 c3        1 MOL     -0.379006
      2 C2          8.5080    3.4380    2.4950 c         1 MOL      0.600647
      3 O1          8.0310    2.4330    3.0830 o         1 MOL     -0.590528
      4 H1          8.3510    5.6060    2.4540 hc        1 MOL      0.097435
      5 H2          7.0200    4.7640    1.6240 hc        1 MOL      0.097435
      6 H3          7.0780    4.8020    3.4030 hc        1 MOL      0.097435
      7 N1          9.6050    3.3700    1.8330 n         1 MOL     -0.392322
      8 C3         10.4130    2.1860    1.6230 c3        1 MOL     -0.015973
      9 C4          9.6490    1.2150    0.6590 c         1 MOL      0.678290
     10 O2          9.1930    1.5980   -0.4470 o         1 MOL     -0.555652
     11 C5         11.7710    2.6350    1.0760 c3        1 MOL     -0.263798
     12 C6         12.6900    1.4520    0.7520 c         1 MOL      0.710770
     13 O3         12.9680    0.6340    1.6600 o         1 MOL     -0.688439
     14 O4         13.0640    1.2510   -0.4410 o         1 MOL     -0.688439
     15 H4          9.9100    4.2600    1.4580 hn        1 MOL      0.274808
     16 H5         10.5770    1.7190    2.6030 h1        1 MOL      0.087791
     17 H6         12.2880    3.2200    1.8330 hc        1 MOL      0.062597
     18 H7         11.5870    3.2520    0.1970 hc        1 MOL      0.062597
     19 N2          9.4010    0.0130    1.2000 n         1 MOL     -0.672968
     20 C7          8.6970   -1.0780    0.5540 c3        1 MOL      0.500746
     21 C8          7.2420   -1.2790    1.0340 c         1 MOL      0.469071
     22 O5          7.0000   -2.0370    1.9750 o         1 MOL     -0.530829
     23 C9          9.4730   -2.4130    0.6100 c3        1 MOL     -0.147097
     24 C10         8.7850   -3.3890   -0.3170 c3        1 MOL     -0.179166
     25 C11         9.7490   -4.5860   -0.3990 c3        1 MOL      0.029967
     26 C12         9.1650   -5.4590   -1.5920 c3        1 MOL      0.023984
     27 N3          9.9510   -6.7510   -1.6800 n4        1 MOL     -0.368914
     28 H8          9.5860   -0.0500    2.1920 hn        1 MOL      0.324018
     29 H9          8.5220   -0.8340   -0.4930 h1        1 MOL     -0.048816
     30 H10         9.5290   -2.7300    1.6490 hc        1 MOL      0.065940
     31 H11        10.4850   -2.3060    0.2470 hc        1 MOL      0.065940
     32 H12         8.6520   -2.9840   -1.3220 hc        1 MOL      0.068479
     33 H13         7.8340   -3.6900    0.1020 hc        1 MOL      0.068479
     34 H14         9.8510   -5.1150    0.5460 hc        1 MOL      0.044660
     35 H15        10.7300   -4.1760   -0.6330 hc        1 MOL      0.044660
     36 H16         9.1580   -4.9170   -2.5320 hx        1 MOL      0.092889
     37 H17         8.1340   -5.7550   -1.4050 hx        1 MOL      0.092889
     38 H18        10.9220   -6.5950   -1.8960 hn        1 MOL      0.278928
     39 H19         9.7940   -7.3000   -0.8440 hn        1 MOL      0.278928
     40 H20         9.5880   -7.3360   -2.4240 hn        1 MOL      0.278928
     41 N4          6.2510   -0.4100    0.6210 n         1 MOL     -0.498068
     42 C13         4.8160   -0.5270    1.1010 c3        1 MOL      0.048926
     43 C14         4.3390   -1.9680    0.8950 c         1 MOL      0.496624
     44 O6          4.5450   -2.4990   -0.1780 o         1 MOL     -0.519740
     45 C15         3.9060    0.5030    0.3930 c3        1 MOL     -0.131658
     46 C16         2.5010    0.3620    0.9800 c         1 MOL      0.327075
     47 O7          1.6570   -0.3470    0.4220 o         1 MOL     -0.600545
     48 O8          2.1120    0.9960    1.9820 o         1 MOL     -0.600545
     49 H21         6.4290    0.2350   -0.1360 hn        1 MOL      0.289204
     50 H22         4.8040   -0.2780    2.1650 h1        1 MOL      0.105650
     51 H23         3.8440    0.4600   -0.6930 hc        1 MOL      0.098198
     52 H24         4.2940    1.4960    0.6220 hc        1 MOL      0.098198
     53 N5          3.7050   -2.6050    1.8750 n         1 MOL     -0.341830
     54 C17         3.2130   -3.9710    1.6800 c3        1 MOL      0.059223
     55 C18         2.3990   -4.2270    0.4290 c         1 MOL      0.429204
     56 O9          2.7640   -5.1130   -0.3840 o         1 MOL     -0.513906
     57 H25         3.5910   -2.1130    2.7500 hn        1 MOL      0.262863
     58 H26         2.5480   -4.2750    2.4860 h1        1 MOL      0.051971
     59 H27         4.0160   -4.6860    1.7790 h1        1 MOL      0.051971
     60 N6          1.3810   -3.3570    0.1390 n         1 MOL     -0.406978
     61 C19         0.5310   -3.4470   -1.0210 c3        1 MOL      0.242418
     62 C20         0.8860   -2.3570   -2.0620 c         1 MOL      0.170841
     63 O10         0.0030   -1.9570   -2.8370 o         1 MOL     -0.256669
     64 C21        -0.9710   -3.5790   -0.7550 c3        1 MOL     -0.447621
     65 C22        -1.7060   -2.4320   -0.1100 c         1 MOL      0.653456
     66 N7         -2.9900   -2.5900    0.1210 n         1 MOL     -0.797929
     67 O11        -1.2180   -1.3190    0.1280 o         1 MOL     -0.641129
     68 H28         1.2550   -2.4910    0.6310 hn        1 MOL      0.243222
     69 H29         0.8470   -4.3350   -1.5750 h1        1 MOL      0.084664
     70 H30        -1.0610   -4.4200   -0.0670 hc        1 MOL      0.151262
     71 H31        -1.3840   -3.7060   -1.7650 hc        1 MOL      0.151262
     72 H32        -3.4140   -3.4580   -0.1610 hn        1 MOL      0.368986
     73 H33        -3.6220   -1.8060    0.2450 hn        1 MOL      0.368986
     74 N8          2.1200   -1.8420   -2.1500 n         1 MOL     -0.079219
     75 C23         2.7050   -1.0980   -3.3320 c3        1 MOL     -0.353657
     76 C24         2.1110    0.3460   -3.5380 c         1 MOL      0.718110
     77 O12         2.2520    0.8660   -4.6030 o         1 MOL     -0.559794
     78 H34         2.7900   -2.2050   -1.4860 hn        1 MOL      0.231498
     79 H35         2.5400   -1.7200   -4.2170 h1        1 MOL      0.146864
     80 H36         3.7580   -0.9170   -3.1430 h1        1 MOL      0.146864
     81 N9          1.4790    0.9160   -2.5360 n         1 MOL     -0.579007
     82 C25         0.6730    2.1190   -2.4610 c3        1 MOL      0.211366
     83 C26        -0.7410    1.9470   -1.7890 c         1 MOL      0.120305
     84 O13        -0.8410    1.3880   -0.6410 o         1 MOL     -0.423869
     85 C27         1.5240    3.1520   -1.7040 c3        1 MOL     -0.222436
     86 C28         0.9300    4.5290   -1.4460 ca        1 MOL     -0.035354
     87 C29         0.2430    5.1520   -2.5010 ca        1 MOL     -0.011921
     88 C30         0.9630    5.1070   -0.1530 ca        1 MOL     -0.011921
     89 C31        -0.2620    6.4540   -2.2590 ca        1 MOL     -0.377694
     90 C32         0.2530    6.3050    0.1150 ca        1 MOL     -0.377694
     91 C33        -0.2540    7.0440   -0.9890 ca        1 MOL      0.425538
     92 O14        -0.4090    8.3940   -0.8690 oh        1 MOL     -0.447155
     93 H37         1.5260    0.2890   -1.7340 hn        1 MOL      0.325526
     94 H38         0.4620    2.4540   -3.4740 h1        1 MOL      0.048615
     95 H39         2.4900    3.2580   -2.1860 hc        1 MOL      0.117590
     96 H40         1.7470    2.7120   -0.7350 hc        1 MOL      0.117590
     97 H41         0.1970    4.6420   -3.4500 ha        1 MOL      0.099128
     98 H42         1.5340    4.6130    0.6170 ha        1 MOL      0.099128
     99 H43        -0.5910    7.0500   -3.1030 ha        1 MOL      0.171419
    100 H44         0.4300    6.7650    1.0770 ha        1 MOL      0.171419
    101 H45        -0.4600    8.5400    0.0860 ho        1 MOL      0.337654
    102 N10        -1.8410    2.3220   -2.3940 n         1 MOL     -0.050071
    103 C34        -3.1520    2.0390   -1.8230 c3        1 MOL      0.072569
    104 C35        -3.4490    0.5680   -1.8910 c         1 MOL      0.189086
    105 O15        -4.0380    0.0190   -0.9360 o         1 MOL     -0.356673
    106 C36        -4.2020    2.8110   -2.6390 c3        1 MOL      0.053380
    107 C37        -4.0540    4.3070   -2.6490 c3        1 MOL      0.355027
    108 C38        -5.6200    2.4770   -2.1960 c3        1 MOL     -0.779430
    109 C39        -3.6990    4.9970   -1.3210 c3        1 MOL     -0.169891
    110 H46        -1.7660    2.8620   -3.2520 hn        1 MOL      0.219959
    111 H47        -3.1500    2.4100   -0.8010 h1        1 MOL      0.035584
    112 H48        -4.1060    2.4200   -3.6560 hc        1 MOL     -0.033415
    113 H49        -4.9180    4.7460   -3.1370 hc        1 MOL     -0.075871
    114 H50        -3.2020    4.4350   -3.3110 hc        1 MOL     -0.075871
    115 H51        -5.7830    1.3970   -2.1880 hc        1 MOL      0.226494
    116 H52        -5.8080    2.8600   -1.2010 hc        1 MOL      0.226494
    117 H53        -6.2820    2.9820   -2.8960 hc        1 MOL      0.226494
    118 H54        -4.4030    4.6800   -0.5500 hc        1 MOL      0.016794
    119 H55        -2.6520    4.7420   -1.1520 hc        1 MOL      0.016794
    120 H56        -3.6990    6.0660   -1.5100 hc        1 MOL      0.016794
    121 N11        -3.1290   -0.0670   -3.0600 n         1 MOL     -0.003680
    122 C40        -3.4350   -1.4850   -3.2640 c3        1 MOL     -0.116339
    123 C41        -4.8820   -1.8680   -3.1350 c         1 MOL      0.342738
    124 O16        -5.2010   -3.0550   -2.7990 o         1 MOL     -0.482476
    125 C42        -2.9050   -1.8530   -4.6620 c3        1 MOL      0.301684
    126 O17        -1.5170   -1.4700   -4.8800 oh        1 MOL     -0.555735
    127 H57        -2.7020    0.4520   -3.8030 hn        1 MOL      0.129372
    128 H58        -2.8460   -2.0840   -2.5680 h1        1 MOL      0.091648
    129 H59        -3.5000   -1.3040   -5.3970 h1        1 MOL      0.007628
    130 H60        -3.1370   -2.9090   -4.8560 h1        1 MOL      0.007628
    131 H61        -1.0560   -1.7050   -4.0790 ho        1 MOL      0.227501
    132 N12        -5.7810   -0.9650   -3.4840 n         1 MOL     -0.290142
    133 C43        -7.2780   -1.0440   -3.4470 c3        1 MOL      0.214907
    134 C44        -7.8760   -1.8670   -2.3060 c         1 MOL      0.485585
    135 O18        -8.7500   -2.7130   -2.5180 o         1 MOL     -0.507463
    136 C45        -7.5640   -1.6290   -4.7990 c3        1 MOL     -0.315093
    137 H62        -5.3720   -0.1250   -3.8630 hn        1 MOL      0.221747
    138 H63        -7.7090   -0.0490   -3.4330 h1        1 MOL      0.040544
    139 H64        -8.6390   -1.7990   -4.8930 hc        1 MOL      0.084659
    140 H65        -7.2550   -0.9310   -5.5840 hc        1 MOL      0.084659
    141 H66        -7.0250   -2.5380   -5.0620 hc        1 MOL      0.084659
    142 N13        -7.4420   -1.5230   -1.0770 n         1 MOL     -0.385812
    143 C46        -7.9550   -2.1250    0.1260 c3        1 MOL      0.293819
    144 C47        -8.6100   -1.0790    1.0570 c         1 MOL      0.433910
    145 O19        -8.2400    0.1080    1.0130 o         1 MOL     -0.443766
    146 C48        -6.7260   -2.6490    0.8930 c3        1 MOL     -0.285962
    147 H67        -6.8380   -0.7350   -0.9550 hn        1 MOL      0.104574
    148 H68        -8.6210   -2.9480   -0.1300 h1        1 MOL      0.019990
    149 H69        -6.2130   -3.3690    0.2570 hc        1 MOL      0.083823
    150 H70        -6.0180   -1.8290    0.9950 hc        1 MOL      0.083823
    151 H71        -7.0730   -2.9400    1.8820 hc        1 MOL      0.083823
    152 N14        -9.5420   -1.5090    1.9220 n         1 MOL     -0.573439
    153 C49       -10.3010   -0.6170    2.8200 c3        1 MOL      0.101342
    154 C50       -10.8630    0.7160    2.2070 c         1 MOL      0.368934
    155 O20       -10.8860    1.7940    2.8370 o         1 MOL     -0.484141
    156 C51        -9.5030   -0.3340    4.1530 c3        1 MOL      0.172675
    157 C52        -9.2880   -1.6320    4.9270 c3        1 MOL     -0.002497
    158 C53        -8.3040   -1.4750    6.1290 c         1 MOL      0.557484
    159 O21        -7.2230   -0.8700    5.9610 o         1 MOL     -0.658601
    160 O22        -8.6770   -1.9820    7.2440 o         1 MOL     -0.658601
    161 H72        -9.6560   -2.5090    2.0110 hn        1 MOL      0.327404
    162 H73       -11.2500   -1.1090    3.0560 h1        1 MOL      0.045555
    163 H74       -10.0990    0.2470    4.8520 hc        1 MOL     -0.024500
    164 H75        -8.5840    0.1520    3.8320 hc        1 MOL     -0.024500
    165 H76        -8.7940   -2.2690    4.1960 hc        1 MOL     -0.044918
    166 H77       -10.2380   -2.1090    5.1240 hc        1 MOL     -0.044918
    167 N15       -11.3020    0.7580    0.9350 n         1 MOL     -0.248603
    168 C54       -11.5730    1.9490    0.1550 c3        1 MOL     -0.182724
    169 H78       -10.8230    2.7070    0.3810 h1        1 MOL      0.093668
    170 H79       -11.5350    1.7050   -0.9060 h1        1 MOL      0.093668
    171 H80       -12.5620    2.3310    0.4060 h1        1 MOL      0.093668
    172 H81       -11.2220   -0.0820    0.3660 hn        1 MOL      0.206860
    173 Ca1        -0.4320    0.3180    1.9270 Ca        1 MOL      1.713414
    174 O23         0.1630   -2.0890    2.6380 oh        1 MOL     -0.793608
    175 H82        -0.5240   -2.7440    2.5210 ho        1 MOL      0.400147
    176 H83         0.5800   -2.3190    3.4740 ho        1 MOL      0.400147
    177 O24        -0.4250    3.0170    2.2710 oh        1 MOL     -0.793608
    178 H84        -0.8970    3.6130    1.6980 ho        1 MOL      0.400147
    179 H85        -0.3160    3.4980    3.0960 ho        1 MOL      0.400147
    180 O25        -2.4570   -0.3180    4.1720 oh        1 MOL     -0.793608
    181 H86        -2.0390   -0.9820    4.7210 ho        1 MOL      0.400147
    182 H87        -3.3440   -0.6540    4.0220 ho        1 MOL      0.400147
    183 O26        -2.7780    1.4320    1.7140 oh        1 MOL     -0.793608
    184 H88        -3.6250    1.2860    1.3020 ho        1 MOL      0.400147
    185 H89        -2.8020    2.3450    2.0070 ho        1 MOL      0.400147
    186 O27         0.2010    0.7390    4.4890 oh        1 MOL     -0.793608
    187 H90        -0.2270    0.4830    5.3100 ho        1 MOL      0.400147
    188 H91         0.9590    1.2580    4.7590 ho        1 MOL      0.400147
@<TRIPOS>BOND
     1    1    2 1   
     2    1    4 1   
     3    1    5 1   
     4    1    6 1   
     5    2    3 2   
     6    2    7 1   
     7    7    8 1   
     8    7   15 1   
     9    8    9 1   
    10    8   11 1   
    11    8   16 1   
    12    9   10 2   
    13    9   19 1   
    14   11   12 1   
    15   11   17 1   
    16   11   18 1   
    17   12   13 1   
    18   12   14 1   
    19   19   20 1   
    20   19   28 1   
    21   20   21 1   
    22   20   23 1   
    23   20   29 1   
    24   21   22 2   
    25   21   41 1   
    26   23   24 1   
    27   23   30 1   
    28   23   31 1   
    29   24   25 1   
    30   24   32 1   
    31   24   33 1   
    32   25   26 1   
    33   25   34 1   
    34   25   35 1   
    35   26   27 1   
    36   26   36 1   
    37   26   37 1   
    38   27   38 1   
    39   27   39 1   
    40   27   40 1   
    41   41   42 1   
    42   41   49 1   
    43   42   43 1   
    44   42   45 1   
    45   42   50 1   
    46   43   44 2   
    47   43   53 1   
    48   45   46 1   
    49   45   51 1   
    50   45   52 1   
    51   46   47 1   
    52   46   48 1   
    53   53   54 1   
    54   53   57 1   
    55   54   55 1   
    56   54   58 1   
    57   54   59 1   
    58   55   56 2   
    59   55   60 1   
    60   60   61 1   
    61   60   68 1   
    62   61   62 1   
    63   61   64 1   
    64   61   69 1   
    65   62   63 2   
    66   62   74 1   
    67   64   65 1   
    68   64   70 1   
    69   64   71 1   
    70   65   66 1   
    71   65   67 2   
    72   66   72 1   
    73   66   73 1   
    74   74   75 1   
    75   74   78 1   
    76   75   76 1   
    77   75   79 1   
    78   75   80 1   
    79   76   77 2   
    80   76   81 1   
    81   81   82 1   
    82   81   93 1   
    83   82   83 1   
    84   82   85 1   
    85   82   94 1   
    86   83   84 2   
    87   83  102 1   
    88   85   86 1   
    89   85   95 1   
    90   85   96 1   
    91   86   87 ar  
    92   86   88 ar  
    93   87   89 ar  
    94   87   97 1   
    95   88   90 ar  
    96   88   98 1   
    97   89   91 ar  
    98   89   99 1   
    99   90   91 ar  
   100   90  100 1   
   101   91   92 1   
   102   92  101 1   
   103  102  103 1   
   104  102  110 1   
   105  103  104 1   
   106  103  106 1   
   107  103  111 1   
   108  104  105 2   
   109  104  121 1   
   110  106  107 1   
   111  106  108 1   
   112  106  112 1   
   113  107  109 1   
   114  107  113 1   
   115  107  114 1   
   116  108  115 1   
   117  108  116 1   
   118  108  117 1   
   119  109  118 1   
   120  109  119 1   
   121  109  120 1   
   122  121  122 1   
   123  121  127 1   
   124  122  123 1   
   125  122  125 1   
   126  122  128 1   
   127  123  124 2   
   128  123  132 1   
   129  125  126 1   
   130  125  129 1   
   131  125  130 1   
   132  126  131 1   
   133  132  133 1   
   134  132  137 1   
   135  133  134 1   
   136  133  136 1   
   137  133  138 1   
   138  134  135 2   
   139  134  142 1   
   140  136  139 1   
   141  136  140 1   
   142  136  141 1   
   143  142  143 1   
   144  142  147 1   
   145  143  144 1   
   146  143  146 1   
   147  143  148 1   
   148  144  145 2   
   149  144  152 1   
   150  146  149 1   
   151  146  150 1   
   152  146  151 1   
   153  152  153 1   
   154  152  161 1   
   155  153  154 1   
   156  153  156 1   
   157  153  162 1   
   158  154  155 2   
   159  154  167 1   
   160  156  157 1   
   161  156  163 1   
   162  156  164 1   
   163  157  158 1   
   164  157  165 1   
   165  157  166 1   
   166  158  159 1   
   167  158  160 1   
   168  167  168 1   
   169  167  172 1   
   170  168  169 1   
   171  168  170 1   
   172  168  171 1   
   173  174  175 1   
   174  174  176 1   
   175  177  178 1   
   176  177  179 1   
   177  180  181 1   
   178  180  182 1   
   179  183  184 1   
   180  183  185 1   
   181  186  187 1   
   182  186  188 1   
@<TRIPOS>SUBSTRUCTURE
     1 MOL         1 TEMP              0 ****  ****    0 ROOT
