@<TRIPOS>MOLECULE
MOL
  198   191     1     0     0
SMALL
resp


@<TRIPOS>ATOM
      1 C1          1.8880    9.3510   -4.9860 c3        1 MOL     -0.395158
      2 C2          1.7700    8.5170   -3.6940 c         1 MOL      0.737794
      3 O1          2.7520    7.9150   -3.2710 o         1 MOL     -0.618358
      4 H1          1.4590    8.7920   -5.8190 hc        1 MOL      0.100245
      5 H2          1.3500   10.2900   -4.8640 hc        1 MOL      0.100245
      6 H3          2.9390    9.5580   -5.1910 hc        1 MOL      0.100245
      7 N1          0.6470    8.4320   -3.0050 n         1 MOL     -0.609128
      8 C3          0.4520    7.8030   -1.6900 c3        1 MOL      0.241982
      9 C4          0.5990    6.2980   -1.7790 c         1 MOL      0.612976
     10 O2          0.0860    5.7340   -2.7610 o         1 MOL     -0.573824
     11 C5         -0.8600    8.2810   -1.0460 c3        1 MOL     -0.457021
     12 C6         -0.7300    9.6700   -0.5080 c         1 MOL      0.824393
     13 O3         -0.0770    9.9160    0.4760 o         1 MOL     -0.643685
     14 O4         -1.2810   10.5760   -1.1260 o         1 MOL     -0.643685
     15 H4         -0.1310    8.9450   -3.4090 hn        1 MOL      0.321475
     16 H5          1.2710    8.0360   -0.9950 h1        1 MOL      0.031166
     17 H6         -1.2260    7.6850   -0.2110 hc        1 MOL      0.120579
     18 H7         -1.5830    8.3630   -1.8530 hc        1 MOL      0.120579
     19 N2          1.0720    5.6270   -0.7140 n         1 MOL     -0.543126
     20 C7          0.9220    4.2290   -0.4950 c3        1 MOL      0.073703
     21 C8          0.6640    3.7950    0.9840 c         1 MOL      0.773859
     22 O5          0.8930    4.5470    1.8920 o         1 MOL     -0.566375
     23 C9          2.0780    3.4260   -1.1540 c3        1 MOL      0.162435
     24 C10         3.4860    3.4530   -0.4820 c3        1 MOL     -0.062966
     25 C11         4.2620    2.1240   -0.7610 c3        1 MOL     -0.201499
     26 C12         5.6570    2.3000   -0.1240 c3        1 MOL      0.002741
     27 N3          6.7770    1.4510   -0.5950 n4        1 MOL     -0.309943
     28 H8          1.4260    6.1890    0.0400 hn        1 MOL      0.274960
     29 H9          0.0350    3.8900   -1.0320 h1        1 MOL      0.052391
     30 H10         2.1070    3.6390   -2.2270 hc        1 MOL     -0.036614
     31 H11         1.7390    2.3900   -1.1560 hc        1 MOL     -0.036614
     32 H12         3.4070    3.5730    0.6000 hc        1 MOL      0.038965
     33 H13         3.9680    4.3360   -0.9160 hc        1 MOL      0.038965
     34 H14         4.3630    1.9740   -1.8430 hc        1 MOL      0.101984
     35 H15         3.8120    1.2960   -0.2100 hc        1 MOL      0.101984
     36 H16         5.4900    2.1980    0.9430 hx        1 MOL      0.084919
     37 H17         6.0710    3.3060   -0.2780 hx        1 MOL      0.084919
     38 H18         6.5900    0.4660   -0.7130 hn        1 MOL      0.289748
     39 H19         7.0390    1.6410   -1.5510 hn        1 MOL      0.289748
     40 H20         7.5580    1.5840    0.0330 hn        1 MOL      0.289748
     41 N4          0.1870    2.5290    1.1650 n         1 MOL     -0.765477
     42 C13         0.0630    1.9100    2.4550 c3        1 MOL      0.490765
     43 C14        -0.1060    0.3930    2.4430 c         1 MOL      0.349898
     44 O6         -0.9930   -0.0850    1.7630 o         1 MOL     -0.513729
     45 C15        -0.9870    2.6560    3.3770 c3        1 MOL     -0.488061
     46 C16        -2.4120    2.8150    2.8500 c         1 MOL      0.847314
     47 O7         -2.7140    3.6290    1.9150 o         1 MOL     -0.739459
     48 O8         -3.3440    2.0500    3.3450 o         1 MOL     -0.739459
     49 H21        -0.1370    2.0020    0.3720 hn        1 MOL      0.371139
     50 H22         1.0610    2.0380    2.8720 h1        1 MOL     -0.002626
     51 H23        -0.5780    3.6460    3.6040 hc        1 MOL      0.104029
     52 H24        -1.1040    2.1650    4.3380 hc        1 MOL      0.104029
     53 N5          0.6290   -0.4340    3.2220 n         1 MOL     -0.230194
     54 C17         1.6920   -0.0280    4.1070 c3        1 MOL     -0.400048
     55 C18         3.0710   -0.0270    3.3980 c         1 MOL      0.574343
     56 O9          3.1980    0.3260    2.2370 o         1 MOL     -0.525482
     57 H25         0.3990   -1.4170    3.1660 hn        1 MOL      0.261604
     58 H26         1.8200   -0.8320    4.8390 h1        1 MOL      0.157829
     59 H27         1.5090    0.9720    4.4770 h1        1 MOL      0.157829
     60 N6          4.1820   -0.3190    4.1380 n         1 MOL     -0.302183
     61 C19         5.5790   -0.0560    3.7020 c3        1 MOL     -0.074875
     62 C20         6.0900   -1.1310    2.7610 c         1 MOL      0.364925
     63 O10         6.8420   -0.8520    1.8530 o         1 MOL     -0.500636
     64 C21         6.4720    0.1170    4.9440 c3        1 MOL     -0.284304
     65 C22         6.5220   -0.9340    5.9660 c         1 MOL      0.773996
     66 O11         7.0590   -2.0260    5.7120 o         1 MOL     -0.723149
     67 O12         6.0710   -0.6510    7.1120 o         1 MOL     -0.723149
     68 H28         4.0310   -0.5780    5.1020 hn        1 MOL      0.217182
     69 H29         5.6610    0.8980    3.1790 h1        1 MOL      0.122846
     70 H30         6.1210    1.0240    5.4520 hc        1 MOL      0.085119
     71 H31         7.4630    0.1840    4.4980 hc        1 MOL      0.085119
     72 N7          5.7120   -2.4050    3.0050 n         1 MOL     -0.046883
     73 C23         6.2250   -3.5990    2.3300 c3        1 MOL     -0.157755
     74 C24         6.0770   -3.7650    0.8150 c         1 MOL      0.539383
     75 O13         5.3510   -4.6180    0.4420 o         1 MOL     -0.544244
     76 H32         4.9950   -2.5450    3.6920 hn        1 MOL      0.180679
     77 H33         5.7380   -4.4970    2.7110 h1        1 MOL      0.088084
     78 H34         7.2950   -3.6650    2.5610 h1        1 MOL      0.088084
     79 N8          6.5880   -2.9010   -0.0080 n         1 MOL     -0.169612
     80 C25         6.6580   -2.9640   -1.4750 c3        1 MOL     -0.419383
     81 C26         5.6420   -1.9570   -2.0490 c         1 MOL      0.522370
     82 O14         5.7670   -0.8090   -1.7590 o         1 MOL     -0.473076
     83 C27         8.1330   -2.7660   -1.9720 c3        1 MOL      0.556153
     84 C28         8.7890   -1.4950   -1.5870 c3        1 MOL     -0.622677
     85 O15         8.9770   -3.7700   -1.4290 oh        1 MOL     -0.600056
     86 H35         7.0380   -2.1360    0.4750 hn        1 MOL      0.187918
     87 H36         6.3320   -3.9740   -1.7540 h1        1 MOL      0.133911
     88 H37         8.1940   -2.8930   -3.0550 h1        1 MOL     -0.027831
     89 H38         8.6790   -4.5970   -1.7910 ho        1 MOL      0.372125
     90 H39         8.2180   -0.8230   -2.2200 hc        1 MOL      0.175264
     91 H40         8.7360   -1.2750   -0.5240 hc        1 MOL      0.175264
     92 H41         9.8420   -1.6560   -1.8280 hc        1 MOL      0.175264
     93 N9          4.6100   -2.3900   -2.8250 n         1 MOL     -0.283612
     94 C29         3.4870   -1.5830   -3.3000 c3        1 MOL     -0.147310
     95 C30         2.2720   -1.9660   -2.4600 c         1 MOL      0.665204
     96 O16         1.5090   -1.0980   -2.0600 o         1 MOL     -0.537414
     97 C31         3.2300   -1.8860   -4.7910 c3        1 MOL      0.003920
     98 C32         4.5020   -1.7980   -5.6270 c3        1 MOL     -0.053080
     99 C33         2.2520   -0.9500   -5.5040 c3        1 MOL     -0.314863
    100 C34         5.3650   -0.5670   -5.5160 c3        1 MOL      0.042772
    101 H42         4.6250   -3.3400   -3.1450 hn        1 MOL      0.256577
    102 H43         3.7570   -0.5340   -3.2270 h1        1 MOL      0.109648
    103 H44         2.7160   -2.8520   -4.8180 hc        1 MOL      0.036391
    104 H45         4.2390   -1.8600   -6.6820 hc        1 MOL      0.018823
    105 H46         5.1440   -2.6600   -5.4830 hc        1 MOL      0.018823
    106 H47         2.2750   -1.0050   -6.5910 hc        1 MOL      0.108751
    107 H48         1.2290   -1.1590   -5.1700 hc        1 MOL      0.108751
    108 H49         2.4100    0.1100   -5.3190 hc        1 MOL      0.108751
    109 H50         4.7910    0.3410   -5.6490 hc        1 MOL     -0.006745
    110 H51         5.6770   -0.5220   -4.4760 hc        1 MOL     -0.006745
    111 H52         6.2900   -0.5800   -6.0950 hc        1 MOL     -0.006745
    112 N10         2.2600   -3.2190   -1.9630 n         1 MOL     -0.466939
    113 C35         1.2680   -3.6560   -0.9530 c3        1 MOL     -0.081411
    114 C36         0.4960   -4.8730   -1.3630 c         1 MOL      0.593109
    115 O17         1.0350   -5.8240   -2.0160 o         1 MOL     -0.541803
    116 C37         2.0710   -3.9560    0.3920 c3        1 MOL      0.420747
    117 C38         2.6480   -2.6200    0.8750 c3        1 MOL     -0.124302
    118 O18         1.2100   -4.4590    1.4010 oh        1 MOL     -0.672122
    119 H53         2.9800   -3.8880   -2.1840 hn        1 MOL      0.260623
    120 H54         0.5910   -2.8200   -0.7530 h1        1 MOL      0.122673
    121 H55         2.9430   -4.6040    0.3010 h1        1 MOL     -0.034816
    122 H56         1.7040   -5.0410    1.9850 ho        1 MOL      0.414392
    123 H57         3.2160   -2.7450    1.7930 hc        1 MOL      0.023008
    124 H58         3.3770   -2.2230    0.1640 hc        1 MOL      0.023008
    125 H59         1.7950   -1.9380    0.9850 hc        1 MOL      0.023008
    126 N11        -0.7810   -4.8880   -0.9100 n         1 MOL     -0.625273
    127 C39        -1.7870   -5.9630   -1.1390 c3        1 MOL      0.141505
    128 C40        -3.1440   -5.5290   -1.7850 c         1 MOL      0.681820
    129 O19        -3.5060   -6.0400   -2.8250 o         1 MOL     -0.596647
    130 C41        -2.0060   -6.5560    0.2920 c3        1 MOL      0.301281
    131 C42        -2.9940   -7.7140    0.3700 c3        1 MOL     -0.420434
    132 O20        -2.4640   -5.6530    1.2330 oh        1 MOL     -0.599151
    133 H60        -1.0500   -4.0870   -0.3410 hn        1 MOL      0.332993
    134 H61        -1.4510   -6.6870   -1.8720 h1        1 MOL      0.065541
    135 H62        -1.0250   -6.9270    0.5710 h1        1 MOL      0.032817
    136 H63        -2.6870   -6.1750    2.0070 ho        1 MOL      0.415080
    137 H64        -3.9920   -7.2700    0.4010 hc        1 MOL      0.097756
    138 H65        -2.9470   -8.2880   -0.5590 hc        1 MOL      0.097756
    139 H66        -2.7920   -8.3430    1.2380 hc        1 MOL      0.097756
    140 N12        -3.8130   -4.5730   -1.1660 n         1 MOL     -0.485856
    141 C43        -5.1000   -3.9850   -1.4840 c3        1 MOL      0.140814
    142 C44        -5.0600   -2.5530   -0.9460 c         1 MOL      0.408760
    143 O21        -4.4380   -2.3100    0.0680 o         1 MOL     -0.434587
    144 C45        -6.3180   -4.7830   -0.9390 c3        1 MOL     -0.170522
    145 C46        -6.6780   -5.9870   -1.8010 c3        1 MOL     -0.013696
    146 C47        -7.9790   -6.7630   -1.3260 c3        1 MOL     -0.076993
    147 C48        -7.7550   -7.8250   -0.2670 c3        1 MOL      0.065817
    148 N13        -8.9260   -8.6910   -0.1140 n4        1 MOL     -0.219094
    149 H67        -3.4000   -4.3690   -0.2610 hn        1 MOL      0.228510
    150 H68        -5.2600   -3.9200   -2.5570 h1        1 MOL      0.062059
    151 H69        -7.2240   -4.1900   -0.8350 hc        1 MOL      0.055276
    152 H70        -5.9950   -5.1960    0.0280 hc        1 MOL      0.055276
    153 H71        -5.8290   -6.6580   -1.8590 hc        1 MOL      0.054665
    154 H72        -6.9700   -5.5710   -2.7620 hc        1 MOL      0.054665
    155 H73        -8.2560   -7.1880   -2.2900 hc        1 MOL      0.043730
    156 H74        -8.7780   -6.0850   -1.0320 hc        1 MOL      0.043730
    157 H75        -7.5640   -7.3990    0.7250 hx        1 MOL      0.054662
    158 H76        -6.8510   -8.3870   -0.4880 hx        1 MOL      0.054662
    159 H77        -9.6410   -8.0950    0.2740 hn        1 MOL      0.209874
    160 H78        -9.1670   -9.0110   -1.0390 hn        1 MOL      0.209874
    161 H79        -8.7690   -9.4310    0.5490 hn        1 MOL      0.209874
    162 N14        -5.8050   -1.6160   -1.5440 n         1 MOL     -0.434591
    163 C49        -5.8300   -0.2080   -1.1510 c3        1 MOL      0.057734
    164 C50        -4.4200    0.3300   -0.7700 c         1 MOL      0.548347
    165 O22        -4.3300    1.0820    0.2120 o         1 MOL     -0.689141
    166 C51        -6.4140    0.6170   -2.3740 c3        1 MOL     -0.158493
    167 C52        -6.3220    2.1110   -2.2100 c3        1 MOL     -0.145872
    168 C53        -7.1710    2.6630   -1.0710 c         1 MOL      0.664703
    169 O23        -8.3930    2.8460   -1.2540 o         1 MOL     -0.683346
    170 O24        -6.6170    2.8010    0.0280 o         1 MOL     -0.683346
    171 H80        -6.1790   -1.8940   -2.4310 hn        1 MOL      0.253130
    172 H81        -6.6150   -0.1400   -0.4050 h1        1 MOL      0.095263
    173 H82        -7.4780    0.3790   -2.2950 hc        1 MOL      0.063815
    174 H83        -5.9840    0.2720   -3.3070 hc        1 MOL      0.063815
    175 H84        -6.7520    2.5540   -3.1120 hc        1 MOL      0.053414
    176 H85        -5.3040    2.5010   -2.1770 hc        1 MOL      0.053414
    177 N15        -3.3240    0.0880   -1.4550 n         1 MOL     -0.219913
    178 C54        -3.1410   -0.3360   -2.8410 c3        1 MOL     -0.190545
    179 H86        -3.5180   -1.3520   -2.9620 h1        1 MOL      0.082988
    180 H87        -3.6890    0.3350   -3.5020 h1        1 MOL      0.082988
    181 H88        -2.0810   -0.3090   -3.0920 h1        1 MOL      0.082988
    182 H89        -2.4360    0.2790   -1.0180 hn        1 MOL      0.276605
    183 Ca1        -5.6140    2.4160    2.2640 Ca        1 MOL      1.755089
    184 O25        -7.7930    3.7580    2.7220 oh        1 MOL     -0.798667
    185 H90        -8.4620    3.6000    3.3950 ho        1 MOL      0.394605
    186 H91        -8.2180    4.3560    2.1080 ho        1 MOL      0.394605
    187 O26        -5.4880    0.4130    4.3250 oh        1 MOL     -0.798667
    188 H92        -5.9470    0.4360    5.1620 ho        1 MOL      0.394605
    189 H93        -5.0390   -0.4440    4.3250 ho        1 MOL      0.394605
    190 O27        -5.4070    3.8180    4.4660 oh        1 MOL     -0.798667
    191 H94        -4.5230    3.7950    4.8190 ho        1 MOL      0.394605
    192 H95        -5.9710    3.9810    5.2290 ho        1 MOL      0.394605
    193 O28        -5.4190    4.9530    1.6030 oh        1 MOL     -0.798667
    194 H96        -4.7680    5.6400    1.7250 ho        1 MOL      0.394605
    195 H97        -5.7550    5.0880    0.7210 ho        1 MOL      0.394605
    196 O29        -7.4230    0.4910    2.0130 oh        1 MOL     -0.798667
    197 H98        -7.5620   -0.4490    1.9510 ho        1 MOL      0.394605
    198 H99        -8.1710    0.8670    1.5450 ho        1 MOL      0.394605
@<TRIPOS>BOND
     1    1    2 1   
     2    1    4 1   
     3    1    5 1   
     4    1    6 1   
     5    2    3 2   
     6    2    7 1   
     7    7    8 1   
     8    7   15 1   
     9    8    9 1   
    10    8   11 1   
    11    8   16 1   
    12    9   10 2   
    13    9   19 1   
    14   11   12 1   
    15   11   17 1   
    16   11   18 1   
    17   12   13 1   
    18   12   14 1   
    19   19   20 1   
    20   19   28 1   
    21   20   21 1   
    22   20   23 1   
    23   20   29 1   
    24   21   22 2   
    25   21   41 1   
    26   23   24 1   
    27   23   30 1   
    28   23   31 1   
    29   24   25 1   
    30   24   32 1   
    31   24   33 1   
    32   25   26 1   
    33   25   34 1   
    34   25   35 1   
    35   26   27 1   
    36   26   36 1   
    37   26   37 1   
    38   27   38 1   
    39   27   39 1   
    40   27   40 1   
    41   41   42 1   
    42   41   49 1   
    43   42   43 1   
    44   42   45 1   
    45   42   50 1   
    46   43   44 2   
    47   43   53 1   
    48   45   46 1   
    49   45   51 1   
    50   45   52 1   
    51   46   47 1   
    52   46   48 1   
    53   53   54 1   
    54   53   57 1   
    55   54   55 1   
    56   54   58 1   
    57   54   59 1   
    58   55   56 2   
    59   55   60 1   
    60   60   61 1   
    61   60   68 1   
    62   61   62 1   
    63   61   64 1   
    64   61   69 1   
    65   62   63 2   
    66   62   72 1   
    67   64   65 1   
    68   64   70 1   
    69   64   71 1   
    70   65   66 1   
    71   65   67 1   
    72   72   73 1   
    73   72   76 1   
    74   73   74 1   
    75   73   77 1   
    76   73   78 1   
    77   74   75 2   
    78   74   79 1   
    79   79   80 1   
    80   79   86 1   
    81   80   81 1   
    82   80   83 1   
    83   80   87 1   
    84   81   82 2   
    85   81   93 1   
    86   83   84 1   
    87   83   85 1   
    88   83   88 1   
    89   84   90 1   
    90   84   91 1   
    91   84   92 1   
    92   85   89 1   
    93   93   94 1   
    94   93  101 1   
    95   94   95 1   
    96   94   97 1   
    97   94  102 1   
    98   95   96 2   
    99   95  112 1   
   100   97   98 1   
   101   97   99 1   
   102   97  103 1   
   103   98  100 1   
   104   98  104 1   
   105   98  105 1   
   106   99  106 1   
   107   99  107 1   
   108   99  108 1   
   109  100  109 1   
   110  100  110 1   
   111  100  111 1   
   112  112  113 1   
   113  112  119 1   
   114  113  114 1   
   115  113  116 1   
   116  113  120 1   
   117  114  115 2   
   118  114  126 1   
   119  116  117 1   
   120  116  118 1   
   121  116  121 1   
   122  117  123 1   
   123  117  124 1   
   124  117  125 1   
   125  118  122 1   
   126  126  127 1   
   127  126  133 1   
   128  127  128 1   
   129  127  130 1   
   130  127  134 1   
   131  128  129 2   
   132  128  140 1   
   133  130  131 1   
   134  130  132 1   
   135  130  135 1   
   136  131  137 1   
   137  131  138 1   
   138  131  139 1   
   139  132  136 1   
   140  140  141 1   
   141  140  149 1   
   142  141  142 1   
   143  141  144 1   
   144  141  150 1   
   145  142  143 2   
   146  142  162 1   
   147  144  145 1   
   148  144  151 1   
   149  144  152 1   
   150  145  146 1   
   151  145  153 1   
   152  145  154 1   
   153  146  147 1   
   154  146  155 1   
   155  146  156 1   
   156  147  148 1   
   157  147  157 1   
   158  147  158 1   
   159  148  159 1   
   160  148  160 1   
   161  148  161 1   
   162  162  163 1   
   163  162  171 1   
   164  163  164 1   
   165  163  166 1   
   166  163  172 1   
   167  164  165 2   
   168  164  177 1   
   169  166  167 1   
   170  166  173 1   
   171  166  174 1   
   172  167  168 1   
   173  167  175 1   
   174  167  176 1   
   175  168  169 1   
   176  168  170 1   
   177  177  178 1   
   178  177  182 1   
   179  178  179 1   
   180  178  180 1   
   181  178  181 1   
   182  184  185 1   
   183  184  186 1   
   184  187  188 1   
   185  187  189 1   
   186  190  191 1   
   187  190  192 1   
   188  193  194 1   
   189  193  195 1   
   190  196  197 1   
   191  196  198 1   
@<TRIPOS>SUBSTRUCTURE
     1 MOL         1 TEMP              0 ****  ****    0 ROOT
