@<TRIPOS>MOLECULE
MOL
  181   177     1     0     0
SMALL
resp


@<TRIPOS>ATOM
      1 C1          6.4210   -5.0700    5.2300 c3        1 MOL     -0.243669
      2 C2          5.7520   -4.1280    4.2610 c         1 MOL      0.614757
      3 O1          4.9510   -3.2930    4.7260 o         1 MOL     -0.568168
      4 H1          7.1240   -5.7050    4.6920 hc        1 MOL      0.046673
      5 H2          6.9570   -4.4950    5.9860 hc        1 MOL      0.046673
      6 H3          5.6670   -5.6910    5.7140 hc        1 MOL      0.046673
      7 N1          5.9400   -4.2770    2.9700 n         1 MOL     -0.290994
      8 C3          6.9440   -5.0500    2.2130 c3        1 MOL     -0.076806
      9 C4          6.2410   -5.5280    0.8650 c         1 MOL      0.410205
     10 O2          5.0040   -5.6290    0.8440 o         1 MOL     -0.458795
     11 C5          8.3140   -4.2340    2.1280 c3        1 MOL     -0.270440
     12 C6          8.0380   -2.8670    1.4270 c         1 MOL      0.611265
     13 O3          7.9320   -2.7590    0.1770 o         1 MOL     -0.641483
     14 O4          8.1810   -1.8250    2.0570 o         1 MOL     -0.641483
     15 H4          5.3850   -3.6310    2.4370 hn        1 MOL      0.222069
     16 H5          7.1070   -5.9780    2.7490 h1        1 MOL      0.109337
     17 H6          8.9790   -4.8340    1.5080 hc        1 MOL      0.071284
     18 H7          8.7230   -4.1000    3.1280 hc        1 MOL      0.071284
     19 N2          7.0110   -5.6750   -0.1800 n         1 MOL     -0.392875
     20 C7          6.5580   -5.9470   -1.5460 c3        1 MOL      0.375251
     21 C8          5.6450   -4.9040   -2.1490 c         1 MOL      0.270164
     22 O5          4.7130   -5.2230   -2.9030 o         1 MOL     -0.524866
     23 C9          5.9780   -7.3760   -1.5680 c3        1 MOL     -0.438942
     24 H8          8.0020   -5.5240   -0.0260 hn        1 MOL      0.248545
     25 H9          7.4580   -5.9740   -2.1710 h1        1 MOL     -0.012449
     26 H10         5.6090   -7.6350   -2.5560 hc        1 MOL      0.113501
     27 H11         6.7560   -7.9920   -1.1170 hc        1 MOL      0.113501
     28 H12         5.1500   -7.3510   -0.8710 hc        1 MOL      0.113501
     29 N3          5.7350   -3.6600   -1.7990 n         1 MOL     -0.162121
     30 C10         4.6660   -2.6180   -2.0600 c3        1 MOL      0.228121
     31 C11         5.3830   -1.3030   -2.4560 c         1 MOL      0.346169
     32 O6          6.6340   -1.3060   -2.2310 o         1 MOL     -0.543375
     33 C12         3.8120   -2.3440   -0.8200 c3        1 MOL     -0.100254
     34 C13         4.5170   -2.0140    0.4750 c         1 MOL      0.675753
     35 O7          5.2850   -1.0270    0.5060 o         1 MOL     -0.624223
     36 O8          4.1980   -2.5130    1.5340 o         1 MOL     -0.624223
     37 H13         6.6290   -3.4070   -1.4040 hn        1 MOL      0.085398
     38 H14         4.1640   -2.8850   -2.9910 h1        1 MOL      0.001869
     39 H15         3.2840   -3.2970   -0.6980 hc        1 MOL      0.024212
     40 H16         3.0850   -1.5890   -1.1120 hc        1 MOL      0.024212
     41 N4          4.7240   -0.3050   -3.0010 n         1 MOL     -0.370145
     42 C14         5.3650    1.0210   -3.1470 c3        1 MOL     -0.265848
     43 C15         5.4730    1.8500   -1.8970 c         1 MOL      0.721990
     44 O9          6.0020    1.2660   -0.9090 o         1 MOL     -0.653640
     45 H17         3.7210   -0.4450   -3.0640 hn        1 MOL      0.322594
     46 H18         4.7560    1.5580   -3.8800 h1        1 MOL      0.141276
     47 H19         6.3930    0.8650   -3.4750 h1        1 MOL      0.141276
     48 N5          5.1630    3.1610   -1.9980 n         1 MOL     -0.571843
     49 C16         5.7080    4.1060   -1.0540 c3        1 MOL      0.129925
     50 C17         4.6150    4.6350   -0.0490 c         1 MOL      0.579444
     51 O10         4.9130    5.5200    0.7370 o         1 MOL     -0.534398
     52 C18         6.3710    5.2870   -1.8300 c3        1 MOL     -0.316200
     53 C19         7.3850    4.8060   -2.8530 c         1 MOL      0.717220
     54 N6          7.7670    5.6740   -3.7730 n         1 MOL     -0.754287
     55 O11         7.8760    3.7060   -2.8630 o         1 MOL     -0.594926
     56 H20         4.6980    3.5070   -2.8200 hn        1 MOL      0.334504
     57 H21         6.4130    3.6250   -0.3830 h1        1 MOL      0.019990
     58 H22         6.8610    5.8970   -1.0730 hc        1 MOL      0.111205
     59 H23         5.5880    5.9010   -2.2620 hc        1 MOL      0.111205
     60 H24         7.6070    6.6610   -3.6480 hn        1 MOL      0.356143
     61 H25         8.5330    5.4310   -4.3890 hn        1 MOL      0.356143
     62 N7          3.3880    4.1050   -0.1530 n         1 MOL     -0.415042
     63 C20         2.1990    4.6080    0.5320 c3        1 MOL     -0.023873
     64 C21         1.7100    5.9500   -0.0540 c         1 MOL      0.528826
     65 O12         2.2350    6.5850   -1.0250 o         1 MOL     -0.577684
     66 H26         3.2650    3.3320   -0.7880 hn        1 MOL      0.261283
     67 H27         2.5080    4.6590    1.5800 h1        1 MOL      0.091637
     68 H28         1.4090    3.8580    0.5030 h1        1 MOL      0.091637
     69 N8          0.6160    6.4760    0.4090 n         1 MOL     -0.414150
     70 C22        -0.3370    5.9480    1.3930 c3        1 MOL     -0.015045
     71 C23        -1.3640    5.0490    0.8070 c         1 MOL      0.308728
     72 O13        -2.0780    5.5070   -0.1280 o         1 MOL     -0.511524
     73 C24        -0.9750    7.1140    2.1570 c3        1 MOL      0.503253
     74 C25        -1.7310    6.8220    3.4540 c3        1 MOL     -0.279232
     75 O14        -0.0450    8.1320    2.4020 oh        1 MOL     -0.688497
     76 H29         0.3930    7.3830    0.0210 hn        1 MOL      0.292023
     77 H30         0.1570    5.3180    2.1280 h1        1 MOL      0.031746
     78 H31        -1.6530    7.6060    1.4540 h1        1 MOL     -0.027829
     79 H32        -0.0620    8.7500    1.6750 ho        1 MOL      0.393749
     80 H33        -2.3880    7.6680    3.6370 hc        1 MOL      0.079870
     81 H34        -2.2850    5.9100    3.2190 hc        1 MOL      0.079870
     82 H35        -1.1000    6.6450    4.3250 hc        1 MOL      0.079870
     83 N9         -1.4870    3.7660    1.2890 n         1 MOL     -0.052737
     84 C26        -2.4300    2.7800    0.7720 c3        1 MOL     -0.102305
     85 C27        -3.2210    2.1230    1.9470 c         1 MOL      0.370867
     86 O15        -2.7350    2.1700    3.0760 o         1 MOL     -0.547601
     87 C28        -1.6840    1.7490   -0.1500 c3        1 MOL      0.147846
     88 C29        -0.5280    0.9880    0.5840 c3        1 MOL     -0.031600
     89 C30        -1.2520    2.3860   -1.5320 c3        1 MOL     -0.434689
     90 C31         0.0090   -0.1290   -0.3510 c3        1 MOL     -0.491882
     91 H36        -0.9020    3.5250    2.0790 hn        1 MOL      0.148096
     92 H37        -2.9850    3.2380   -0.0360 h1        1 MOL      0.189300
     93 H38        -2.4150    0.9910   -0.4230 hc        1 MOL     -0.009034
     94 H39        -0.8710    0.4420    1.4660 hc        1 MOL      0.043468
     95 H40         0.2520    1.6930    0.8670 hc        1 MOL      0.043468
     96 H41        -2.1470    2.5940   -2.1100 hc        1 MOL      0.105737
     97 H42        -0.7590    3.3490   -1.4140 hc        1 MOL      0.105737
     98 H43        -0.6570    1.6630   -2.0970 hc        1 MOL      0.105737
     99 H44        -0.7860   -0.8210   -0.6480 hc        1 MOL      0.135275
    100 H45         0.5740    0.2520   -1.2050 hc        1 MOL      0.135275
    101 H46         0.5520   -0.7470    0.3570 hc        1 MOL      0.135275
    102 N10        -4.5300    1.7980    1.8270 n         1 MOL     -0.257230
    103 C32        -5.4200    2.0090    0.6040 c3        1 MOL      0.149780
    104 C33        -6.5720    1.0300    0.6130 c         1 MOL      0.445884
    105 O16        -6.7040    0.2810    1.5490 o         1 MOL     -0.493199
    106 C34        -5.9320    3.4490    0.6240 c3        1 MOL     -0.088964
    107 C35        -6.3950    4.0690    1.9780 c         1 MOL      0.710491
    108 O17        -5.9240    5.1700    2.2990 o         1 MOL     -0.726719
    109 O18        -7.2420    3.4850    2.6540 o         1 MOL     -0.726719
    110 H47        -4.9890    1.4360    2.6490 hn        1 MOL      0.270202
    111 H48        -4.8430    1.8070   -0.3010 h1        1 MOL      0.006904
    112 H49        -6.7410    3.6370   -0.0780 hc        1 MOL     -0.038699
    113 H50        -5.0700    3.9800    0.2080 hc        1 MOL     -0.038699
    114 N11        -7.3920    1.0180   -0.4510 n         1 MOL     -0.576717
    115 C36        -8.4730    0.0270   -0.6420 c3        1 MOL      0.569687
    116 C37        -8.3570   -0.7260   -1.9790 c         1 MOL      0.075734
    117 O19        -8.0880   -0.1020   -2.9810 o         1 MOL     -0.483922
    118 C38        -9.8210    0.6720   -0.4700 c3        1 MOL     -0.452827
    119 C39       -11.0630   -0.1000   -0.7110 ca        1 MOL      0.241066
    120 C40       -11.6160   -0.1700   -1.9960 ca        1 MOL     -0.245530
    121 C41       -11.6900   -0.8030    0.3610 ca        1 MOL     -0.245530
    122 C42       -12.6460   -0.9940   -2.2950 ca        1 MOL     -0.057294
    123 C43       -12.7760   -1.5740    0.1130 ca        1 MOL     -0.057294
    124 C44       -13.2510   -1.7320   -1.2300 ca        1 MOL     -0.205256
    125 H51        -7.1560    1.4750   -1.3290 hn        1 MOL      0.323491
    126 H52        -8.4800   -0.6880    0.1760 h1        1 MOL      0.000852
    127 H53        -9.7720    1.4940   -1.1950 hc        1 MOL      0.126557
    128 H54        -9.8970    1.1510    0.5030 hc        1 MOL      0.126557
    129 H55       -11.0050    0.2740   -2.7690 ha        1 MOL      0.146747
    130 H56       -11.3590   -0.7410    1.3960 ha        1 MOL      0.146747
    131 H57       -12.9820   -1.1470   -3.3070 ha        1 MOL      0.094167
    132 H58       -13.4130   -1.9750    0.8930 ha        1 MOL      0.094167
    133 H59       -14.0400   -2.4090   -1.5340 ha        1 MOL      0.100623
    134 N12        -8.5390   -2.0630   -1.9980 n         1 MOL      0.265403
    135 C45        -8.9550   -2.9110   -0.8570 c3        1 MOL      0.070440
    136 C46        -7.9560   -3.0320    0.2050 c         1 MOL      0.355588
    137 O20        -8.3150   -3.1370    1.3880 o         1 MOL     -0.567431
    138 C47        -9.2400   -4.2740   -1.4680 c3        1 MOL      0.033279
    139 C48        -9.5490   -3.9120   -2.9120 c3        1 MOL     -0.064543
    140 C49        -8.5580   -2.8350   -3.2490 c3        1 MOL     -0.273300
    141 H60        -9.8350   -2.4880   -0.3730 h1        1 MOL      0.011898
    142 H61        -8.4140   -4.9820   -1.4160 hc        1 MOL      0.022595
    143 H62       -10.0410   -4.7880   -0.9410 hc        1 MOL      0.022595
    144 H63        -9.4020   -4.8230   -3.4930 hc        1 MOL      0.000285
    145 H64       -10.5430   -3.4600   -2.9680 hc        1 MOL      0.000285
    146 H65        -7.5790   -3.2860   -3.4060 h1        1 MOL      0.131983
    147 H66        -8.9690   -2.2930   -4.0930 h1        1 MOL      0.131983
    148 N13        -6.6130   -2.8150   -0.0380 n         1 MOL     -0.134639
    149 C50        -5.5130   -2.9110    0.9610 c3        1 MOL      0.175336
    150 C51        -5.5160   -4.2810    1.7300 c         1 MOL      0.326545
    151 O21        -5.2890   -5.3170    1.0370 o         1 MOL     -0.563008
    152 C52        -4.0990   -2.7360    0.2350 c3        1 MOL     -0.174108
    153 C53        -3.8990   -1.4540   -0.5160 c3        1 MOL      0.067197
    154 C54        -4.6340   -1.2980   -1.9080 c         1 MOL      0.647063
    155 O22        -5.2860   -2.1690   -2.4590 o         1 MOL     -0.663012
    156 O23        -4.4330   -0.2440   -2.5410 o         1 MOL     -0.663012
    157 H67        -6.3510   -2.6660   -0.9940 hn        1 MOL      0.014658
    158 H68        -5.7290   -2.0650    1.6110 h1        1 MOL      0.011945
    159 H69        -3.8900   -3.6160   -0.3670 hc        1 MOL      0.069801
    160 H70        -3.3220   -2.7770    1.0120 hc        1 MOL      0.069801
    161 H71        -2.8310   -1.4660   -0.6970 hc        1 MOL     -0.027749
    162 H72        -4.0900   -0.5540    0.0720 hc        1 MOL     -0.027749
    163 N14        -5.7210   -4.4440    3.0450 n         1 MOL     -0.257145
    164 C55        -5.9530   -3.4330    4.0880 c3        1 MOL     -0.169160
    165 H73        -6.9140   -2.9500    3.9170 h1        1 MOL      0.085300
    166 H74        -5.9570   -3.9130    5.0660 h1        1 MOL      0.085300
    167 H75        -5.1600   -2.6860    4.0530 h1        1 MOL      0.085300
    168 H76        -5.4510   -5.3400    3.4160 hn        1 MOL      0.252177
    169 Ca1         7.8760   -0.2800   -0.1020 Ca        1 MOL      1.711728
    170 O24         7.3370    1.2470    2.0610 oh        1 MOL     -0.812494
    171 H77         7.8850    1.9390    2.4240 ho        1 MOL      0.403571
    172 H78         6.4460    1.5400    2.2090 ho        1 MOL      0.403571
    173 O25         8.6980    2.1840   -0.6610 oh        1 MOL     -0.812494
    174 H79         8.2690    2.7170   -1.3240 ho        1 MOL      0.403571
    175 H80         9.2670    2.7930   -0.1840 ho        1 MOL      0.403571
    176 O26        10.4030   -0.2190    0.7880 oh        1 MOL     -0.812494
    177 H81        10.6390    0.1750    1.6340 ho        1 MOL      0.403571
    178 H82        11.1590   -0.0350    0.2220 ho        1 MOL      0.403571
    179 O27         9.5720   -0.5870   -2.2540 oh        1 MOL     -0.812494
    180 H83         9.7020   -1.3270   -2.8470 ho        1 MOL      0.403571
    181 H84         9.6010    0.1790   -2.8220 ho        1 MOL      0.403571
@<TRIPOS>BOND
     1    1    2 1   
     2    1    4 1   
     3    1    5 1   
     4    1    6 1   
     5    2    3 2   
     6    2    7 1   
     7    7    8 1   
     8    7   15 1   
     9    8    9 1   
    10    8   11 1   
    11    8   16 1   
    12    9   10 2   
    13    9   19 1   
    14   11   12 1   
    15   11   17 1   
    16   11   18 1   
    17   12   13 1   
    18   12   14 1   
    19   19   20 1   
    20   19   24 1   
    21   20   21 1   
    22   20   23 1   
    23   20   25 1   
    24   21   22 2   
    25   21   29 1   
    26   23   26 1   
    27   23   27 1   
    28   23   28 1   
    29   29   30 1   
    30   29   37 1   
    31   30   31 1   
    32   30   33 1   
    33   30   38 1   
    34   31   32 2   
    35   31   41 1   
    36   33   34 1   
    37   33   39 1   
    38   33   40 1   
    39   34   35 1   
    40   34   36 1   
    41   41   42 1   
    42   41   45 1   
    43   42   43 1   
    44   42   46 1   
    45   42   47 1   
    46   43   44 2   
    47   43   48 1   
    48   48   49 1   
    49   48   56 1   
    50   49   50 1   
    51   49   52 1   
    52   49   57 1   
    53   50   51 2   
    54   50   62 1   
    55   52   53 1   
    56   52   58 1   
    57   52   59 1   
    58   53   54 1   
    59   53   55 2   
    60   54   60 1   
    61   54   61 1   
    62   62   63 1   
    63   62   66 1   
    64   63   64 1   
    65   63   67 1   
    66   63   68 1   
    67   64   65 2   
    68   64   69 1   
    69   69   70 1   
    70   69   76 1   
    71   70   71 1   
    72   70   73 1   
    73   70   77 1   
    74   71   72 2   
    75   71   83 1   
    76   73   74 1   
    77   73   75 1   
    78   73   78 1   
    79   74   80 1   
    80   74   81 1   
    81   74   82 1   
    82   75   79 1   
    83   83   84 1   
    84   83   91 1   
    85   84   85 1   
    86   84   87 1   
    87   84   92 1   
    88   85   86 2   
    89   85  102 1   
    90   87   88 1   
    91   87   89 1   
    92   87   93 1   
    93   88   90 1   
    94   88   94 1   
    95   88   95 1   
    96   89   96 1   
    97   89   97 1   
    98   89   98 1   
    99   90   99 1   
   100   90  100 1   
   101   90  101 1   
   102  102  103 1   
   103  102  110 1   
   104  103  104 1   
   105  103  106 1   
   106  103  111 1   
   107  104  105 2   
   108  104  114 1   
   109  106  107 1   
   110  106  112 1   
   111  106  113 1   
   112  107  108 1   
   113  107  109 1   
   114  114  115 1   
   115  114  125 1   
   116  115  116 1   
   117  115  118 1   
   118  115  126 1   
   119  116  117 2   
   120  116  134 1   
   121  118  119 1   
   122  118  127 1   
   123  118  128 1   
   124  119  120 ar  
   125  119  121 ar  
   126  120  122 ar  
   127  120  129 1   
   128  121  123 ar  
   129  121  130 1   
   130  122  124 ar  
   131  122  131 1   
   132  123  124 ar  
   133  123  132 1   
   134  124  133 1   
   135  134  135 1   
   136  134  140 1   
   137  135  136 1   
   138  135  138 1   
   139  135  141 1   
   140  136  137 2   
   141  136  148 1   
   142  138  139 1   
   143  138  142 1   
   144  138  143 1   
   145  139  140 1   
   146  139  144 1   
   147  139  145 1   
   148  140  146 1   
   149  140  147 1   
   150  148  149 1   
   151  148  157 1   
   152  149  150 1   
   153  149  152 1   
   154  149  158 1   
   155  150  151 2   
   156  150  163 1   
   157  152  153 1   
   158  152  159 1   
   159  152  160 1   
   160  153  154 1   
   161  153  161 1   
   162  153  162 1   
   163  154  155 1   
   164  154  156 1   
   165  163  164 1   
   166  163  168 1   
   167  164  165 1   
   168  164  166 1   
   169  164  167 1   
   170  170  171 1   
   171  170  172 1   
   172  173  174 1   
   173  173  175 1   
   174  176  177 1   
   175  176  178 1   
   176  179  180 1   
   177  179  181 1   
@<TRIPOS>SUBSTRUCTURE
     1 MOL         1 TEMP              0 ****  ****    0 ROOT
