@<TRIPOS>MOLECULE
MOL
  178   175     1     0     0
SMALL
resp


@<TRIPOS>ATOM
      1 C1          1.9050   -0.9200    5.0360 c3        1 MOL     -0.366076
      2 C2          3.0390   -0.7640    4.0240 c         1 MOL      0.629979
      3 O1          2.9860    0.0920    3.1550 o         1 MOL     -0.577491
      4 H1          2.2970   -1.3520    5.9560 hc        1 MOL      0.084708
      5 H2          1.4720    0.0570    5.2500 hc        1 MOL      0.084708
      6 H3          1.1380   -1.5760    4.6240 hc        1 MOL      0.084708
      7 N1          4.1150   -1.4480    4.2170 n         1 MOL     -0.238468
      8 C3          5.4160   -1.1640    3.6760 c3        1 MOL     -0.192238
      9 C4          5.6800   -1.9500    2.3550 c         1 MOL      0.573398
     10 O2          6.6170   -1.6470    1.6680 o         1 MOL     -0.495113
     11 C5          6.4260   -1.6480    4.7260 c3        1 MOL     -0.136112
     12 C6          7.9330   -1.2920    4.3670 c         1 MOL      0.724647
     13 O3          8.3130   -0.2000    4.8800 o         1 MOL     -0.708420
     14 O4          8.6910   -2.1740    3.9700 o         1 MOL     -0.708420
     15 H4          4.0690   -1.9660    5.0880 hn        1 MOL      0.199389
     16 H5          5.4930   -0.0950    3.4440 h1        1 MOL      0.143472
     17 H6          6.4080   -2.7310    4.7460 hc        1 MOL      0.018507
     18 H7          6.1750   -1.2550    5.7130 hc        1 MOL      0.018507
     19 N2          4.7940   -2.9310    1.9840 n         1 MOL     -0.533767
     20 C7          4.8640   -3.6760    0.7450 c3        1 MOL      0.444890
     21 C8          4.7690   -2.8330   -0.5190 c         1 MOL      0.236364
     22 O5          3.7360   -2.8400   -1.1950 o         1 MOL     -0.559712
     23 C9          6.0900   -4.5300    0.8080 c3        1 MOL     -0.490908
     24 H8          4.0030   -3.1550    2.5640 hn        1 MOL      0.230739
     25 H9          4.0010   -4.3520    0.7200 h1        1 MOL      0.026889
     26 H10         6.3690   -4.9170   -0.1700 hc        1 MOL      0.123505
     27 H11         6.9820   -3.9800    1.0870 hc        1 MOL      0.123505
     28 H12         5.8720   -5.4160    1.4020 hc        1 MOL      0.123505
     29 N3          5.8470   -2.1480   -0.9100 n         1 MOL     -0.163187
     30 C10         5.9490   -1.2570   -2.0520 c3        1 MOL      0.008927
     31 C11         6.6800    0.0560   -1.7720 c         1 MOL      0.620882
     32 O6          7.2220    0.6760   -2.6510 o         1 MOL     -0.538719
     33 C12         6.6360   -2.1040   -3.1880 c3        1 MOL     -0.152962
     34 C13         7.8990   -2.8260   -2.8540 c         1 MOL      0.709236
     35 O7          8.6690   -2.3640   -2.0020 o         1 MOL     -0.719978
     36 O8          8.1110   -3.9290   -3.4140 o         1 MOL     -0.719978
     37 H13         6.6290   -2.2270   -0.2660 hn        1 MOL      0.258335
     38 H14         4.9680   -0.9750   -2.4300 h1        1 MOL      0.071877
     39 H15         6.7540   -1.4360   -4.0420 hc        1 MOL     -0.022645
     40 H16         5.8650   -2.7460   -3.6260 hc        1 MOL     -0.022645
     41 N4          6.4800    0.6010   -0.5350 n         1 MOL     -0.433527
     42 C14         6.5980    2.0930   -0.2820 c3        1 MOL      0.029383
     43 C15         5.5050    3.0150   -0.9070 c         1 MOL      0.567513
     44 O9          5.8270    4.1450   -1.3760 o         1 MOL     -0.578589
     45 H17         6.0100    0.0120    0.1340 hn        1 MOL      0.260046
     46 H18         7.5510    2.4260   -0.6670 h1        1 MOL      0.051090
     47 H19         6.5570    2.3190    0.7840 h1        1 MOL      0.051090
     48 N5          4.3010    2.5180   -0.9430 n         1 MOL     -0.383782
     49 C16         3.2140    3.2670   -1.5790 c3        1 MOL     -0.055650
     50 C17         2.7180    4.3880   -0.6450 c         1 MOL      0.588027
     51 O10         2.8230    4.3450    0.6000 o         1 MOL     -0.510818
     52 C18         2.1230    2.2340   -1.8420 c3        1 MOL     -0.289311
     53 C19         2.4440    1.1010   -2.8260 c         1 MOL      0.568355
     54 N6          2.9290    1.5080   -3.9670 n         1 MOL     -0.735718
     55 O11         2.2970   -0.1120   -2.6200 o         1 MOL     -0.512226
     56 H20         4.0140    1.6050   -0.6170 hn        1 MOL      0.301729
     57 H21         3.5460    3.7250   -2.5070 h1        1 MOL      0.076595
     58 H22         1.3210    2.8380   -2.2790 hc        1 MOL      0.155111
     59 H23         1.7020    1.9170   -0.8900 hc        1 MOL      0.155111
     60 H24         3.0210    2.4820   -4.2220 hn        1 MOL      0.355405
     61 H25         3.0590    0.9260   -4.7900 hn        1 MOL      0.355405
     62 N7          2.1490    5.4740   -1.2370 n         1 MOL     -0.509047
     63 C20         1.5950    6.6580   -0.5590 c3        1 MOL      0.176783
     64 C21         0.1630    6.9310   -1.0280 c         1 MOL      0.554051
     65 O12        -0.3000    6.3200   -1.9800 o         1 MOL     -0.509999
     66 H26         2.0640    5.3400   -2.2330 hn        1 MOL      0.261110
     67 H27         2.1770    7.5540   -0.7620 h1        1 MOL      0.024661
     68 H28         1.6430    6.5170    0.5180 h1        1 MOL      0.024661
     69 N8         -0.5440    7.8590   -0.4150 n         1 MOL     -0.529501
     70 C22        -2.0040    7.9920   -0.5730 c3        1 MOL     -0.102536
     71 C23        -2.9100    6.7870   -0.1660 c         1 MOL      0.404406
     72 O13        -4.0790    6.9460    0.0560 o         1 MOL     -0.525966
     73 C24        -2.6430    9.2920    0.1990 c3        1 MOL      0.492276
     74 C25        -2.5190    9.1170    1.7690 c3        1 MOL     -0.380063
     75 O14        -2.0300   10.4190   -0.3440 oh        1 MOL     -0.637680
     76 H29        -0.0780    8.2880    0.3750 hn        1 MOL      0.254237
     77 H30        -2.0830    8.2160   -1.6390 h1        1 MOL      0.127903
     78 H31        -3.6790    9.2130   -0.1190 h1        1 MOL      0.015827
     79 H32        -1.1140   10.3760   -0.0400 ho        1 MOL      0.386761
     80 H33        -1.6340    8.5370    2.0310 hc        1 MOL      0.091811
     81 H34        -2.5290   10.1000    2.2360 hc        1 MOL      0.091811
     82 H35        -3.3730    8.6010    2.1900 hc        1 MOL      0.091811
     83 N9         -2.3190    5.6110   -0.0230 n         1 MOL     -0.116487
     84 C26        -2.9240    4.3160    0.3970 c3        1 MOL     -0.051794
     85 C27        -2.3360    3.0470   -0.2010 c         1 MOL      0.552919
     86 O15        -1.4150    3.1200   -0.9620 o         1 MOL     -0.497466
     87 C28        -2.8570    4.1520    1.9020 c3        1 MOL      0.128386
     88 C29        -1.5380    3.6100    2.5220 c3        1 MOL     -0.078564
     89 C30        -3.3840    5.4200    2.6780 c3        1 MOL     -0.243624
     90 C31        -0.3510    4.5010    2.5010 c3        1 MOL      0.258051
     91 H36        -1.3520    5.4850   -0.3010 hn        1 MOL      0.100474
     92 H37        -3.9830    4.3410    0.1210 h1        1 MOL      0.058588
     93 H38        -3.5070    3.3100    2.1520 hc        1 MOL     -0.002855
     94 H39        -1.2190    2.6150    2.1980 hc        1 MOL      0.003920
     95 H40        -1.8740    3.4470    3.5480 hc        1 MOL      0.003920
     96 H41        -2.7950    6.3300    2.5130 hc        1 MOL      0.056643
     97 H42        -4.4550    5.5140    2.4970 hc        1 MOL      0.056643
     98 H43        -3.2700    5.0790    3.7060 hc        1 MOL      0.056643
     99 H44         0.0070    4.8170    1.5130 hc        1 MOL     -0.051793
    100 H45        -0.6000    5.4410    2.9730 hc        1 MOL     -0.051793
    101 H46         0.4820    4.0550    3.0460 hc        1 MOL     -0.051793
    102 N10        -2.9470    1.9110    0.0740 n         1 MOL     -0.549187
    103 C32        -2.5510    0.5830   -0.4860 c3        1 MOL      0.049583
    104 C33        -3.6780   -0.4370   -0.5740 c         1 MOL      0.483028
    105 O16        -3.4010   -1.6460   -0.5330 o         1 MOL     -0.445227
    106 C34        -1.2280    0.1010    0.2500 c3        1 MOL     -0.020603
    107 C35        -0.3120   -0.6410   -0.6980 c         1 MOL      0.517761
    108 O17         0.8780   -0.9820   -0.4020 o         1 MOL     -0.704132
    109 O18        -0.8190   -1.0700   -1.7950 o         1 MOL     -0.704132
    110 H47        -3.6760    1.8940    0.7670 hn        1 MOL      0.268072
    111 H48        -2.3240    0.6970   -1.5430 h1        1 MOL      0.092917
    112 H49        -1.4620   -0.5570    1.0940 hc        1 MOL      0.058329
    113 H50        -0.6150    0.8790    0.6980 hc        1 MOL      0.058329
    114 N11        -4.9280    0.0540   -0.4700 n         1 MOL     -0.354629
    115 C36        -6.1470   -0.8000   -0.7100 c3        1 MOL      0.078772
    116 C37        -6.2760   -2.0400    0.1940 c         1 MOL      0.144527
    117 O19        -6.1910   -1.8410    1.3870 o         1 MOL     -0.388980
    118 C38        -7.3960    0.0540   -0.6990 c3        1 MOL     -0.071000
    119 C39        -8.6920   -0.6510   -1.0230 ca        1 MOL      0.038577
    120 C40        -9.0670   -0.9150   -2.3680 ca        1 MOL     -0.148130
    121 C41        -9.5090   -1.0950    0.0090 ca        1 MOL     -0.148130
    122 C42       -10.3130   -1.4630   -2.7120 ca        1 MOL     -0.126429
    123 C43       -10.6660   -1.8370   -0.3250 ca        1 MOL     -0.126429
    124 C44       -11.1460   -1.9460   -1.6360 ca        1 MOL     -0.108696
    125 H51        -5.0110    1.0610   -0.4640 hn        1 MOL      0.227533
    126 H52        -6.0850   -1.1340   -1.7430 h1        1 MOL      0.040828
    127 H53        -7.3000    0.8340   -1.4510 hc        1 MOL      0.061268
    128 H54        -7.5000    0.5850    0.2420 hc        1 MOL      0.061268
    129 H55        -8.3850   -0.5420   -3.1020 ha        1 MOL      0.129290
    130 H56        -9.2650   -0.9800    1.0540 ha        1 MOL      0.129290
    131 H57       -10.6230   -1.5410   -3.7370 ha        1 MOL      0.111937
    132 H58       -11.3080   -2.1820    0.4650 ha        1 MOL      0.111937
    133 H59       -12.1630   -2.2670   -1.7980 ha        1 MOL      0.104739
    134 N12        -6.5090   -3.3210   -0.2290 n         1 MOL     -0.019895
    135 C45        -6.6400   -4.4710    0.6950 c3        1 MOL      0.074521
    136 C46        -5.4840   -4.5600    1.7800 c         1 MOL      0.225522
    137 O20        -5.7480   -4.9290    2.9090 o         1 MOL     -0.477759
    138 C47        -6.6300   -5.7150   -0.1820 c3        1 MOL      0.229432
    139 C48        -7.0440   -5.2400   -1.5630 c3        1 MOL     -0.075272
    140 C49        -6.6630   -3.8250   -1.6190 c3        1 MOL     -0.001931
    141 H60        -7.6520   -4.5130    1.1160 h1        1 MOL      0.028932
    142 H61        -5.5830   -6.0090   -0.2070 hc        1 MOL     -0.050849
    143 H62        -7.1860   -6.5480    0.2340 hc        1 MOL     -0.050849
    144 H63        -6.7650   -5.9580   -2.3310 hc        1 MOL      0.013047
    145 H64        -8.1340   -5.2700   -1.5360 hc        1 MOL      0.013047
    146 H65        -5.7720   -3.7600   -2.2470 h1        1 MOL      0.033290
    147 H66        -7.3350   -3.1670   -2.1610 h1        1 MOL      0.033290
    148 N13        -4.2850   -4.2540    1.3450 n         1 MOL     -0.073632
    149 C50        -3.0940   -4.1600    2.2080 c3        1 MOL     -0.065702
    150 C51        -3.1430   -3.1530    3.2880 c         1 MOL      0.350314
    151 O21        -2.6230   -3.3490    4.3940 o         1 MOL     -0.534719
    152 C52        -1.8220   -3.8990    1.4350 c3        1 MOL      0.007832
    153 C53        -1.3990   -5.0050    0.3840 c3        1 MOL     -0.293772
    154 C54        -0.3730   -4.4550   -0.6330 c         1 MOL      0.780913
    155 O22        -0.7090   -4.0930   -1.7830 o         1 MOL     -0.756191
    156 O23         0.8490   -4.3250   -0.3620 o         1 MOL     -0.756191
    157 H67        -4.1710   -4.0600    0.3620 hn        1 MOL      0.202343
    158 H68        -2.9100   -5.0710    2.7660 h1        1 MOL      0.103861
    159 H69        -0.9680   -3.9550    2.1080 hc        1 MOL      0.074905
    160 H70        -1.8750   -2.9420    0.9080 hc        1 MOL      0.074905
    161 H71        -2.2630   -5.3330   -0.1900 hc        1 MOL      0.039827
    162 H72        -1.0860   -5.8690    0.9740 hc        1 MOL      0.039827
    163 N14        -3.8050   -1.9970    3.0780 n         1 MOL     -0.056408
    164 C55        -4.0150   -0.8990    4.1030 c3        1 MOL     -0.160357
    165 H73        -3.5450   -1.1860    5.0440 h1        1 MOL      0.076276
    166 H74        -3.5670    0.0270    3.7420 h1        1 MOL      0.076276
    167 H75        -5.0830   -0.7490    4.2620 h1        1 MOL      0.076276
    168 H76        -4.3480   -1.9400    2.2310 hn        1 MOL      0.100750
    169 Ca1         1.3940   -2.6280   -2.3890 Ca        1 MOL      1.738574
    170 O24        -0.3280   -2.9450   -4.3000 oh        1 MOL     -0.821883
    171 H77        -0.5890   -3.5730   -4.9730 ho        1 MOL      0.405088
    172 H78        -1.0800   -2.3600   -4.2100 ho        1 MOL      0.405088
    173 O25         2.9690   -2.2570   -4.5240 oh        1 MOL     -0.821883
    174 H79         2.7020   -1.9510   -5.3830 ho        1 MOL      0.405088
    175 H80         3.6090   -2.9440   -4.7020 ho        1 MOL      0.405088
    176 O26         2.5230   -4.8040   -3.0880 oh        1 MOL     -0.821883
    177 H81         3.1860   -4.6940   -3.7670 ho        1 MOL      0.405088
    178 H82         2.9070   -5.4470   -2.4870 ho        1 MOL      0.405088
@<TRIPOS>BOND
     1    1    2 1   
     2    1    4 1   
     3    1    5 1   
     4    1    6 1   
     5    2    3 2   
     6    2    7 1   
     7    7    8 1   
     8    7   15 1   
     9    8    9 1   
    10    8   11 1   
    11    8   16 1   
    12    9   10 2   
    13    9   19 1   
    14   11   12 1   
    15   11   17 1   
    16   11   18 1   
    17   12   13 1   
    18   12   14 1   
    19   19   20 1   
    20   19   24 1   
    21   20   21 1   
    22   20   23 1   
    23   20   25 1   
    24   21   22 2   
    25   21   29 1   
    26   23   26 1   
    27   23   27 1   
    28   23   28 1   
    29   29   30 1   
    30   29   37 1   
    31   30   31 1   
    32   30   33 1   
    33   30   38 1   
    34   31   32 2   
    35   31   41 1   
    36   33   34 1   
    37   33   39 1   
    38   33   40 1   
    39   34   35 1   
    40   34   36 1   
    41   41   42 1   
    42   41   45 1   
    43   42   43 1   
    44   42   46 1   
    45   42   47 1   
    46   43   44 2   
    47   43   48 1   
    48   48   49 1   
    49   48   56 1   
    50   49   50 1   
    51   49   52 1   
    52   49   57 1   
    53   50   51 2   
    54   50   62 1   
    55   52   53 1   
    56   52   58 1   
    57   52   59 1   
    58   53   54 1   
    59   53   55 2   
    60   54   60 1   
    61   54   61 1   
    62   62   63 1   
    63   62   66 1   
    64   63   64 1   
    65   63   67 1   
    66   63   68 1   
    67   64   65 2   
    68   64   69 1   
    69   69   70 1   
    70   69   76 1   
    71   70   71 1   
    72   70   73 1   
    73   70   77 1   
    74   71   72 2   
    75   71   83 1   
    76   73   74 1   
    77   73   75 1   
    78   73   78 1   
    79   74   80 1   
    80   74   81 1   
    81   74   82 1   
    82   75   79 1   
    83   83   84 1   
    84   83   91 1   
    85   84   85 1   
    86   84   87 1   
    87   84   92 1   
    88   85   86 2   
    89   85  102 1   
    90   87   88 1   
    91   87   89 1   
    92   87   93 1   
    93   88   90 1   
    94   88   94 1   
    95   88   95 1   
    96   89   96 1   
    97   89   97 1   
    98   89   98 1   
    99   90   99 1   
   100   90  100 1   
   101   90  101 1   
   102  102  103 1   
   103  102  110 1   
   104  103  104 1   
   105  103  106 1   
   106  103  111 1   
   107  104  105 2   
   108  104  114 1   
   109  106  107 1   
   110  106  112 1   
   111  106  113 1   
   112  107  108 1   
   113  107  109 1   
   114  114  115 1   
   115  114  125 1   
   116  115  116 1   
   117  115  118 1   
   118  115  126 1   
   119  116  117 2   
   120  116  134 1   
   121  118  119 1   
   122  118  127 1   
   123  118  128 1   
   124  119  120 ar  
   125  119  121 ar  
   126  120  122 ar  
   127  120  129 1   
   128  121  123 ar  
   129  121  130 1   
   130  122  124 ar  
   131  122  131 1   
   132  123  124 ar  
   133  123  132 1   
   134  124  133 1   
   135  134  135 1   
   136  134  140 1   
   137  135  136 1   
   138  135  138 1   
   139  135  141 1   
   140  136  137 2   
   141  136  148 1   
   142  138  139 1   
   143  138  142 1   
   144  138  143 1   
   145  139  140 1   
   146  139  144 1   
   147  139  145 1   
   148  140  146 1   
   149  140  147 1   
   150  148  149 1   
   151  148  157 1   
   152  149  150 1   
   153  149  152 1   
   154  149  158 1   
   155  150  151 2   
   156  150  163 1   
   157  152  153 1   
   158  152  159 1   
   159  152  160 1   
   160  153  154 1   
   161  153  161 1   
   162  153  162 1   
   163  154  155 1   
   164  154  156 1   
   165  163  164 1   
   166  163  168 1   
   167  164  165 1   
   168  164  166 1   
   169  164  167 1   
   170  170  171 1   
   171  170  172 1   
   172  173  174 1   
   173  173  175 1   
   174  176  177 1   
   175  176  178 1   
@<TRIPOS>SUBSTRUCTURE
     1 MOL         1 TEMP              0 ****  ****    0 ROOT
