@<TRIPOS>MOLECULE
MOL
  175   173     1     0     0
SMALL
resp


@<TRIPOS>ATOM
      1 C1         -6.2520    7.8570    1.9090 c3        1 MOL     -0.420092
      2 C2         -7.0750    7.2250    0.7740 c         1 MOL      0.663215
      3 O1         -7.0510    7.6580   -0.3700 o         1 MOL     -0.573303
      4 H1         -5.1900    7.7310    1.7010 hc        1 MOL      0.098502
      5 H2         -6.4840    8.9190    1.9800 hc        1 MOL      0.098502
      6 H3         -6.4960    7.3670    2.8520 hc        1 MOL      0.098502
      7 N1         -7.8980    6.2500    1.1460 n         1 MOL     -0.421270
      8 C3         -8.8510    5.5870    0.2370 c3        1 MOL      0.071050
      9 C4         -8.2100    4.5760   -0.6900 c         1 MOL      0.467065
     10 O2         -8.8370    4.3050   -1.7340 o         1 MOL     -0.492435
     11 C5        -10.0050    4.9570    1.0070 c3        1 MOL     -0.236249
     12 C6        -11.0720    4.1890    0.2130 c         1 MOL      0.773042
     13 O3        -11.9930    4.8500   -0.3120 o         1 MOL     -0.740171
     14 O4        -11.0420    2.9510    0.2280 o         1 MOL     -0.740171
     15 H4         -7.9770    5.9110    2.0920 hn        1 MOL      0.266955
     16 H5         -9.3230    6.3500   -0.3780 h1        1 MOL      0.081588
     17 H6        -10.4630    5.7180    1.6350 hc        1 MOL      0.008986
     18 H7         -9.5540    4.2770    1.7210 hc        1 MOL      0.008986
     19 N2         -6.9750    4.1280   -0.2890 n         1 MOL     -0.430395
     20 C7         -6.2000    3.0920   -0.9700 c3        1 MOL      0.174382
     21 C8         -5.3040    2.3670    0.0460 c         1 MOL      0.482554
     22 O5         -4.6960    2.9850    0.8540 o         1 MOL     -0.517758
     23 C9         -5.3480    3.8080   -2.0060 c3        1 MOL     -0.234983
     24 H8         -6.5990    4.4070    0.6040 hn        1 MOL      0.229477
     25 H9         -6.9020    2.4620   -1.5110 h1        1 MOL      0.075668
     26 H10        -4.5900    4.4780   -1.5970 hc        1 MOL      0.074008
     27 H11        -5.0450    3.1410   -2.8200 hc        1 MOL      0.074008
     28 H12        -6.0080    4.4850   -2.5440 hc        1 MOL      0.074008
     29 N3         -5.1170    1.0630   -0.0200 n         1 MOL     -0.361678
     30 C10        -5.6540    0.0290   -0.9630 c3        1 MOL     -0.141003
     31 C11        -5.7580   -1.2830   -0.2410 c         1 MOL      0.562046
     32 O6         -4.8560   -1.5500    0.5470 o         1 MOL     -0.496233
     33 C12        -4.7240   -0.1460   -2.1440 c3        1 MOL     -0.059831
     34 C13        -3.2040   -0.3450   -1.8530 c         1 MOL      0.613536
     35 O7         -2.7210   -1.4480   -2.0230 o         1 MOL     -0.686693
     36 O8         -2.4300    0.6140   -1.5600 o         1 MOL     -0.686693
     37 H13        -4.6130    0.6860    0.7720 hn        1 MOL      0.260038
     38 H14        -6.6430    0.3520   -1.3100 h1        1 MOL      0.069470
     39 H15        -4.7370    0.7810   -2.7250 hc        1 MOL      0.029493
     40 H16        -5.1410   -0.9290   -2.7650 hc        1 MOL      0.029493
     41 N4         -6.7460   -2.1630   -0.5700 n         1 MOL     -0.430222
     42 C14        -7.0050   -3.3720    0.1770 c3        1 MOL      0.043669
     43 C15        -7.0850   -4.5720   -0.8720 c         1 MOL      0.506425
     44 O9         -8.1140   -5.1390   -1.2130 o         1 MOL     -0.532874
     45 H17        -7.3010   -1.9960   -1.4010 hn        1 MOL      0.325466
     46 H18        -7.9860   -3.2730    0.6470 h1        1 MOL      0.051168
     47 H19        -6.2710   -3.5440    0.9610 h1        1 MOL      0.051168
     48 N5         -5.9150   -5.0700   -1.3280 n         1 MOL     -0.556332
     49 C16        -4.5200   -4.5780   -1.0210 c3        1 MOL      0.192374
     50 C17        -4.0770   -5.1880    0.4120 c         1 MOL      0.471118
     51 O10        -4.1540   -6.4370    0.6320 o         1 MOL     -0.552286
     52 C18        -3.5590   -4.9100   -2.1000 c3        1 MOL     -0.074902
     53 C19        -2.1590   -4.5400   -1.8990 c         1 MOL      0.604994
     54 N6         -1.3500   -4.7800   -2.9400 n         1 MOL     -0.730662
     55 O11        -1.7340   -4.0090   -0.8920 o         1 MOL     -0.690172
     56 H20        -6.0630   -5.9660   -1.7740 hn        1 MOL      0.329971
     57 H21        -4.5910   -3.4940   -0.8790 h1        1 MOL      0.033416
     58 H22        -3.8750   -4.4420   -3.0410 hc        1 MOL      0.024536
     59 H23        -3.7700   -5.9780   -2.2060 hc        1 MOL      0.024536
     60 H24        -1.7370   -5.3060   -3.7120 hn        1 MOL      0.358899
     61 H25        -0.3990   -4.4620   -2.8170 hn        1 MOL      0.358899
     62 N7         -3.6570   -4.3550    1.3500 n         1 MOL     -0.146495
     63 C20        -3.2690   -4.7220    2.6580 c3        1 MOL     -0.211743
     64 C21        -1.7990   -5.1120    2.7870 c         1 MOL      0.568096
     65 O12        -1.5520   -5.8830    3.6800 o         1 MOL     -0.575495
     66 H26        -3.6810   -3.3670    1.1450 hn        1 MOL      0.177597
     67 H27        -3.8930   -5.4800    3.1300 h1        1 MOL      0.090101
     68 H28        -3.4320   -3.8000    3.2280 h1        1 MOL      0.090101
     69 N8         -0.9140   -4.7360    1.9080 n         1 MOL     -0.286096
     70 C22         0.5550   -4.9870    1.9890 c3        1 MOL     -0.148236
     71 C23         1.2950   -3.6620    1.8090 c         1 MOL      0.283278
     72 O13         0.8650   -2.8780    1.0220 o         1 MOL     -0.374771
     73 C24         1.1250   -6.0460    1.0320 c3        1 MOL      0.294139
     74 C25         0.4910   -7.4340    1.3790 c3        1 MOL     -0.375638
     75 O14         0.7860   -5.8540   -0.2910 oh        1 MOL     -0.553015
     76 H29        -1.1780   -4.2490    1.0590 hn        1 MOL      0.397130
     77 H30         0.8090   -5.3790    2.9770 h1        1 MOL      0.072422
     78 H31         2.2050   -6.0680    1.1570 h1        1 MOL      0.002672
     79 H32         1.5310   -5.5150   -0.8020 ho        1 MOL      0.412689
     80 H33        -0.5710   -7.2890    1.6040 hc        1 MOL      0.098353
     81 H34         0.5930   -8.2950    0.7160 hc        1 MOL      0.098353
     82 H35         0.8390   -7.7590    2.3650 hc        1 MOL      0.098353
     83 N9          2.5040   -3.5430    2.4110 n         1 MOL     -0.118216
     84 C26         3.3450   -2.4220    2.0420 c3        1 MOL      0.004613
     85 C27         4.2540   -2.8290    0.8580 c         1 MOL      0.325475
     86 O15         5.2310   -3.5290    0.9880 o         1 MOL     -0.536842
     87 C28         4.1160   -1.8780    3.2960 c3        1 MOL     -0.113780
     88 C29         5.1290   -0.6940    2.9920 c3        1 MOL      0.359917
     89 C30         3.1810   -1.3810    4.3860 c3        1 MOL     -0.182668
     90 C31         6.3120   -0.3400    3.8970 c3        1 MOL     -0.356172
     91 H36         2.9160   -4.2850    2.9690 hn        1 MOL      0.224877
     92 H37         2.6660   -1.6010    1.7880 h1        1 MOL      0.047802
     93 H38         4.5310   -2.7730    3.7520 hc        1 MOL      0.027274
     94 H39         4.5500    0.2110    2.8260 hc        1 MOL     -0.042121
     95 H40         5.5860   -0.9370    2.0360 hc        1 MOL     -0.042121
     96 H41         3.7300   -1.0580    5.2670 hc        1 MOL      0.039336
     97 H42         2.6680   -0.4750    4.0530 hc        1 MOL      0.039336
     98 H43         2.4060   -2.1050    4.6200 hc        1 MOL      0.039336
     99 H44         7.1110   -1.0870    3.9790 hc        1 MOL      0.071336
    100 H45         6.8270    0.4980    3.4270 hc        1 MOL      0.071336
    101 H46         5.8730   -0.0080    4.8330 hc        1 MOL      0.071336
    102 N10         4.0180   -2.1630   -0.2940 n         1 MOL     -0.228249
    103 C32         4.6180   -2.5940   -1.5390 c3        1 MOL      0.213799
    104 C33         5.6470   -1.5380   -1.9670 c         1 MOL      0.403583
    105 O16         6.2710   -1.6590   -3.0570 o         1 MOL     -0.558242
    106 C34         3.6100   -2.8380   -2.6760 c3        1 MOL     -0.253125
    107 C35         2.2640   -3.5120   -2.3500 c         1 MOL      0.749733
    108 O17         2.1950   -4.7460   -2.4040 o         1 MOL     -0.708391
    109 O18         1.2720   -2.7610   -2.1040 o         1 MOL     -0.708391
    110 H47         3.2510   -1.5120   -0.4330 hn        1 MOL      0.197784
    111 H48         5.2130   -3.5000   -1.4220 h1        1 MOL      0.058211
    112 H49         4.1930   -3.4310   -3.3870 hc        1 MOL      0.051577
    113 H50         3.4830   -1.8610   -3.1410 hc        1 MOL      0.051577
    114 N11         5.8720   -0.4780   -1.1520 n         1 MOL     -0.284605
    115 C36         6.7670    0.6580   -1.4580 c3        1 MOL      0.123967
    116 C37         6.3550    1.8650   -0.6490 c         1 MOL      0.465907
    117 O19         5.9070    1.7480    0.4940 o         1 MOL     -0.518468
    118 C38         8.1720    0.1920   -1.1630 c3        1 MOL     -0.380757
    119 C39         9.2870    1.2820   -1.0420 ca        1 MOL      0.120918
    120 C40        10.0430    1.3710    0.1860 ca        1 MOL     -0.157596
    121 C41         9.6780    2.0150   -2.1750 ca        1 MOL     -0.157596
    122 C42        11.0300    2.3220    0.3340 ca        1 MOL     -0.104773
    123 C43        10.7240    2.9710   -2.0440 ca        1 MOL     -0.104773
    124 C44        11.3520    3.1300   -0.7830 ca        1 MOL     -0.147744
    125 H51         5.2820   -0.3110   -0.3480 hn        1 MOL      0.133971
    126 H52         6.5190    0.8690   -2.4930 h1        1 MOL      0.066961
    127 H53         8.5440   -0.5610   -1.8700 hc        1 MOL      0.156323
    128 H54         8.2900   -0.3550   -0.2270 hc        1 MOL      0.156323
    129 H55         9.7620    0.7250    1.0030 ha        1 MOL      0.120253
    130 H56         9.1830    1.7300   -3.0970 ha        1 MOL      0.120253
    131 H57        11.5680    2.4770    1.2550 ha        1 MOL      0.112468
    132 H58        11.0320    3.5340   -2.9190 ha        1 MOL      0.112468
    133 H59        12.1240    3.8790   -0.6460 ha        1 MOL      0.105915
    134 N12         6.4700    3.0840   -1.2570 n         1 MOL     -0.041948
    135 C45         6.4400    4.3490   -0.4970 c3        1 MOL     -0.155539
    136 C46         5.0440    4.7980    0.0190 c         1 MOL      0.615574
    137 O20         4.9160    5.9260    0.4860 o         1 MOL     -0.559196
    138 C47         7.1720    5.4100   -1.3210 c3        1 MOL      0.055999
    139 C48         6.6970    4.9540   -2.7150 c3        1 MOL     -0.049305
    140 C49         6.5660    3.4490   -2.6690 c3        1 MOL     -0.098903
    141 H60         7.0120    4.2500    0.4280 h1        1 MOL      0.076348
    142 H61         6.9120    6.4440   -1.0760 hc        1 MOL      0.017555
    143 H62         8.2520    5.2740   -1.2430 hc        1 MOL      0.017555
    144 H63         5.7340    5.4480   -2.8690 hc        1 MOL      0.035481
    145 H64         7.3930    5.3370   -3.4580 hc        1 MOL      0.035481
    146 H65         5.6550    3.0710   -3.1360 h1        1 MOL      0.056534
    147 H66         7.3940    2.9540   -3.1720 h1        1 MOL      0.056534
    148 N13         4.0800    3.9090    0.0670 n         1 MOL     -0.409935
    149 C50         2.8280    4.2340    0.7510 c3        1 MOL     -0.175018
    150 C51         2.9830    4.4960    2.2050 c         1 MOL      0.549184
    151 O21         2.2110    5.3040    2.7940 o         1 MOL     -0.535708
    152 C52         1.9080    3.0300    0.4370 c3        1 MOL      0.034319
    153 C53         2.2390    1.7040    1.0510 c3        1 MOL     -0.104988
    154 C54         1.3250    0.6730    0.4940 c         1 MOL      0.708985
    155 O22         1.8490   -0.1860   -0.2890 o         1 MOL     -0.702426
    156 O23         0.1260    0.5560    0.6710 o         1 MOL     -0.702426
    157 H67         4.2460    2.9830   -0.2900 hn        1 MOL      0.246806
    158 H68         2.3460    5.1050    0.3130 h1        1 MOL      0.143988
    159 H69         1.8060    2.9540   -0.6420 hc        1 MOL      0.044937
    160 H70         0.9040    3.2910    0.7730 hc        1 MOL      0.044937
    161 H71         2.1840    1.6960    2.1390 hc        1 MOL      0.009453
    162 H72         3.2870    1.4790    0.8350 hc        1 MOL      0.009453
    163 N14         4.1150    4.0620    2.8600 n         1 MOL     -0.200102
    164 C55         4.4250    4.3400    4.2630 c3        1 MOL     -0.223378
    165 H73         5.5050    4.4190    4.3880 h1        1 MOL      0.093560
    166 H74         3.9550    5.2770    4.5610 h1        1 MOL      0.093560
    167 H75         4.0460    3.5290    4.8860 h1        1 MOL      0.093560
    168 H76         4.8760    3.6380    2.3440 hn        1 MOL      0.217246
    169 Ca1        -0.4640   -1.3510   -0.8400 Ca        1 MOL      1.725153
    170 O24        -2.0700   -1.5380    1.4170 oh        1 MOL     -0.962098
    171 H77        -2.9970   -1.6240    1.1960 ho        1 MOL      0.448734
    172 H78        -2.0340   -0.7880    2.0030 ho        1 MOL      0.448734
    173 O25         0.2550    0.2400   -2.8840 oh        1 MOL     -0.962098
    174 H79        -0.4940    0.6730   -3.2870 ho        1 MOL      0.448734
    175 H80         0.9910    0.4360   -3.4490 ho        1 MOL      0.448734
@<TRIPOS>BOND
     1    1    2 1   
     2    1    4 1   
     3    1    5 1   
     4    1    6 1   
     5    2    3 2   
     6    2    7 1   
     7    7    8 1   
     8    7   15 1   
     9    8    9 1   
    10    8   11 1   
    11    8   16 1   
    12    9   10 2   
    13    9   19 1   
    14   11   12 1   
    15   11   17 1   
    16   11   18 1   
    17   12   13 1   
    18   12   14 1   
    19   19   20 1   
    20   19   24 1   
    21   20   21 1   
    22   20   23 1   
    23   20   25 1   
    24   21   22 2   
    25   21   29 1   
    26   23   26 1   
    27   23   27 1   
    28   23   28 1   
    29   29   30 1   
    30   29   37 1   
    31   30   31 1   
    32   30   33 1   
    33   30   38 1   
    34   31   32 2   
    35   31   41 1   
    36   33   34 1   
    37   33   39 1   
    38   33   40 1   
    39   34   35 1   
    40   34   36 1   
    41   41   42 1   
    42   41   45 1   
    43   42   43 1   
    44   42   46 1   
    45   42   47 1   
    46   43   44 2   
    47   43   48 1   
    48   48   49 1   
    49   48   56 1   
    50   49   50 1   
    51   49   52 1   
    52   49   57 1   
    53   50   51 2   
    54   50   62 1   
    55   52   53 1   
    56   52   58 1   
    57   52   59 1   
    58   53   54 1   
    59   53   55 2   
    60   54   60 1   
    61   54   61 1   
    62   62   63 1   
    63   62   66 1   
    64   63   64 1   
    65   63   67 1   
    66   63   68 1   
    67   64   65 2   
    68   64   69 1   
    69   69   70 1   
    70   69   76 1   
    71   70   71 1   
    72   70   73 1   
    73   70   77 1   
    74   71   72 2   
    75   71   83 1   
    76   73   74 1   
    77   73   75 1   
    78   73   78 1   
    79   74   80 1   
    80   74   81 1   
    81   74   82 1   
    82   75   79 1   
    83   83   84 1   
    84   83   91 1   
    85   84   85 1   
    86   84   87 1   
    87   84   92 1   
    88   85   86 2   
    89   85  102 1   
    90   87   88 1   
    91   87   89 1   
    92   87   93 1   
    93   88   90 1   
    94   88   94 1   
    95   88   95 1   
    96   89   96 1   
    97   89   97 1   
    98   89   98 1   
    99   90   99 1   
   100   90  100 1   
   101   90  101 1   
   102  102  103 1   
   103  102  110 1   
   104  103  104 1   
   105  103  106 1   
   106  103  111 1   
   107  104  105 2   
   108  104  114 1   
   109  106  107 1   
   110  106  112 1   
   111  106  113 1   
   112  107  108 1   
   113  107  109 1   
   114  114  115 1   
   115  114  125 1   
   116  115  116 1   
   117  115  118 1   
   118  115  126 1   
   119  116  117 2   
   120  116  134 1   
   121  118  119 1   
   122  118  127 1   
   123  118  128 1   
   124  119  120 ar  
   125  119  121 ar  
   126  120  122 ar  
   127  120  129 1   
   128  121  123 ar  
   129  121  130 1   
   130  122  124 ar  
   131  122  131 1   
   132  123  124 ar  
   133  123  132 1   
   134  124  133 1   
   135  134  135 1   
   136  134  140 1   
   137  135  136 1   
   138  135  138 1   
   139  135  141 1   
   140  136  137 2   
   141  136  148 1   
   142  138  139 1   
   143  138  142 1   
   144  138  143 1   
   145  139  140 1   
   146  139  144 1   
   147  139  145 1   
   148  140  146 1   
   149  140  147 1   
   150  148  149 1   
   151  148  157 1   
   152  149  150 1   
   153  149  152 1   
   154  149  158 1   
   155  150  151 2   
   156  150  163 1   
   157  152  153 1   
   158  152  159 1   
   159  152  160 1   
   160  153  154 1   
   161  153  161 1   
   162  153  162 1   
   163  154  155 1   
   164  154  156 1   
   165  163  164 1   
   166  163  168 1   
   167  164  165 1   
   168  164  166 1   
   169  164  167 1   
   170  170  171 1   
   171  170  172 1   
   172  173  174 1   
   173  173  175 1   
@<TRIPOS>SUBSTRUCTURE
     1 MOL         1 TEMP              0 ****  ****    0 ROOT
