@<TRIPOS>MOLECULE
MOL
  192   187     1     0     0
SMALL
resp


@<TRIPOS>ATOM
      1 C1         12.3960    2.9750   -3.0720 c3        1 MOL     -0.261751
      2 C2         11.9340    1.8700   -2.1730 c         1 MOL      0.599685
      3 O1         12.1310    0.6960   -2.5010 o         1 MOL     -0.574341
      4 H1         12.4070    2.6230   -4.1030 hc        1 MOL      0.066924
      5 H2         11.7160    3.8230   -2.9850 hc        1 MOL      0.066924
      6 H3         13.4010    3.2840   -2.7820 hc        1 MOL      0.066924
      7 N1         11.3530    2.3010   -1.0090 n         1 MOL     -0.143945
      8 C3         10.6380    1.5130   -0.0910 c3        1 MOL     -0.624358
      9 C4          9.2020    1.3110   -0.6240 c         1 MOL      0.798340
     10 O2          8.4490    2.3190   -0.7740 o         1 MOL     -0.771365
     11 C5         10.6420    1.9730    1.3800 c3        1 MOL      0.105968
     12 C6         10.2280    3.4900    1.6290 c         1 MOL      0.729534
     13 O3          9.6700    4.3230    0.8610 o         1 MOL     -0.729317
     14 O4         10.4060    3.7840    2.8740 o         1 MOL     -0.729317
     15 H4         11.4480    3.2860   -0.8250 hn        1 MOL      0.147416
     16 H5         11.1490    0.5570   -0.0880 h1        1 MOL      0.193577
     17 H6         11.5910    1.8300    1.8860 hc        1 MOL      0.059559
     18 H7          9.8910    1.3190    1.8350 hc        1 MOL      0.059559
     19 N2          8.7960    0.0590   -0.8080 n         1 MOL     -0.549359
     20 C7          7.3330   -0.2350   -0.8780 c3        1 MOL      0.076771
     21 C8          6.7570   -0.0570    0.5290 c         1 MOL      0.576528
     22 O5          7.4980   -0.4910    1.5020 o         1 MOL     -0.524248
     23 C9          7.1110   -1.7270   -1.3270 c3        1 MOL     -0.145142
     24 C10         5.6470   -1.9800   -1.7230 c3        1 MOL     -0.007554
     25 C11         4.9680   -1.0780   -2.7720 c3        1 MOL     -0.188782
     26 C12         5.6460   -0.9140   -4.1620 c3        1 MOL      0.083184
     27 N3          5.5320   -2.2230   -4.8630 n4        1 MOL     -0.325893
     28 H8          9.3570   -0.7510   -0.6080 hn        1 MOL      0.329216
     29 H9          6.8700    0.4200   -1.6110 h1        1 MOL      0.086148
     30 H10         7.4330   -2.4040   -0.5280 hc        1 MOL      0.071032
     31 H11         7.8130   -1.8980   -2.1460 hc        1 MOL      0.071032
     32 H12         4.9310   -1.9690   -0.8990 hc        1 MOL      0.053385
     33 H13         5.6410   -2.9870   -2.1260 hc        1 MOL      0.053385
     34 H14         4.9500   -0.0520   -2.3890 hc        1 MOL      0.077753
     35 H15         3.9420   -1.4080   -2.9330 hc        1 MOL      0.077753
     36 H16         6.6930   -0.6110   -4.0870 hx        1 MOL      0.060045
     37 H17         5.1030   -0.1580   -4.7260 hx        1 MOL      0.060045
     38 H18         4.5820   -2.4420   -5.1100 hn        1 MOL      0.305195
     39 H19         6.1290   -2.2250   -5.6830 hn        1 MOL      0.305195
     40 H20         5.8290   -2.9870   -4.2710 hn        1 MOL      0.305195
     41 N4          5.5510    0.4350    0.6730 n         1 MOL     -0.469346
     42 C13         4.6810    0.5030    1.8850 c3        1 MOL      0.117109
     43 C14         3.2520    0.6870    1.3630 c         1 MOL      0.554577
     44 O6          3.1180    1.3670    0.3270 o         1 MOL     -0.578215
     45 C15         5.1220    1.6170    2.8210 c3        1 MOL     -0.268793
     46 C16         5.6760    2.8170    2.0650 c         1 MOL      0.798486
     47 O7          4.8990    3.6840    1.6700 o         1 MOL     -0.741048
     48 O8          6.8580    2.9710    1.8750 o         1 MOL     -0.741048
     49 H21         5.0570    0.7510   -0.1490 hn        1 MOL      0.221138
     50 H22         4.7360   -0.4030    2.4890 h1        1 MOL      0.087043
     51 H23         5.9450    1.2470    3.4310 hc        1 MOL      0.090078
     52 H24         4.2980    1.9430    3.4560 hc        1 MOL      0.090078
     53 N5          2.1880    0.0640    1.7960 n         1 MOL     -0.449781
     54 C17         2.1670   -0.8550    2.9970 c3        1 MOL      0.096744
     55 C18         2.8270   -2.2180    2.8060 c         1 MOL      0.380412
     56 O9          3.2560   -2.5360    1.7100 o         1 MOL     -0.561367
     57 H25         1.3900   -0.0000    1.1750 hn        1 MOL      0.306639
     58 H26         1.1770   -1.0280    3.4030 h1        1 MOL      0.046164
     59 H27         2.7230   -0.3590    3.7900 h1        1 MOL      0.046164
     60 N6          2.9180   -3.0370    3.8370 n         1 MOL     -0.150474
     61 C19         3.3890   -4.3870    3.8040 c3        1 MOL     -0.073699
     62 C20         2.6040   -5.3190    2.8200 c         1 MOL      0.498341
     63 O10         3.2100   -6.0550    2.0600 o         1 MOL     -0.527656
     64 C21         3.3310   -4.9290    5.2700 c3        1 MOL     -0.349173
     65 C22         1.9910   -4.7030    5.9000 c         1 MOL      0.762256
     66 O11         1.7740   -3.5160    6.3310 o         1 MOL     -0.699918
     67 O12         1.1210   -5.5640    5.9770 o         1 MOL     -0.699918
     68 H28         2.4450   -2.7140    4.6690 hn        1 MOL      0.125179
     69 H29         4.4150   -4.2170    3.4890 h1        1 MOL      0.106325
     70 H30         4.0330   -4.3010    5.8260 hc        1 MOL      0.101219
     71 H31         3.6230   -5.9800    5.2310 hc        1 MOL      0.101219
     72 N7          1.2480   -5.2010    2.7670 n         1 MOL     -0.114919
     73 C23         0.3900   -5.9870    1.8800 c3        1 MOL     -0.356122
     74 C24         0.2530   -5.5010    0.4160 c         1 MOL      0.608796
     75 O13        -0.2600   -6.2360   -0.4410 o         1 MOL     -0.594555
     76 H32         0.7410   -4.5450    3.3460 hn        1 MOL      0.228931
     77 H33        -0.6370   -6.0070    2.2430 h1        1 MOL      0.164175
     78 H34         0.8640   -6.9650    1.7890 h1        1 MOL      0.164175
     79 N8          0.6100   -4.2900    0.0900 n         1 MOL     -0.333902
     80 C25         0.7330   -3.6550   -1.2230 c3        1 MOL      0.036228
     81 C26         0.3560   -2.1670   -1.2300 c         1 MOL      0.340530
     82 O14         0.6510   -1.4270   -0.3100 o         1 MOL     -0.434366
     83 C27         2.2330   -3.7840   -1.7110 c3        1 MOL      0.188879
     84 C28         2.7770   -5.2090   -1.7010 c3        1 MOL     -0.143408
     85 O15         2.4050   -3.3950   -3.0350 oh        1 MOL     -0.705091
     86 H35         1.0800   -3.7770    0.8190 hn        1 MOL      0.185916
     87 H36         0.2150   -4.1270   -2.0530 h1        1 MOL      0.078460
     88 H37         2.8810   -3.1910   -1.0620 h1        1 MOL      0.094458
     89 H38         2.2130   -4.1240   -3.6180 ho        1 MOL      0.412447
     90 H39         2.8850   -5.5520   -0.6650 hc        1 MOL      0.045973
     91 H40         2.0680   -5.8390   -2.2360 hc        1 MOL      0.045973
     92 H41         3.7230   -5.3230   -2.2220 hc        1 MOL      0.045973
     93 N9         -0.0890   -1.6240   -2.3520 n         1 MOL     -0.032450
     94 C29        -0.6130   -0.2610   -2.4710 c3        1 MOL     -0.108329
     95 C30        -2.1190   -0.2200   -2.0840 c         1 MOL      0.663307
     96 O16        -2.4880    0.8210   -1.5090 o         1 MOL     -0.522796
     97 C31        -0.3790    0.2370   -3.9000 c3        1 MOL      0.019087
     98 C32         1.0880    0.1240   -4.4110 c3        1 MOL     -0.092991
     99 C33        -0.9280    1.7310   -3.9750 c3        1 MOL     -0.307292
    100 C34         2.1910    0.7090   -3.5570 c3        1 MOL     -0.209039
    101 H42        -0.4000   -2.2320   -3.0930 hn        1 MOL      0.165145
    102 H43        -0.1780    0.4300   -1.7570 h1        1 MOL      0.118714
    103 H44        -1.0510   -0.3270   -4.5480 hc        1 MOL      0.014333
    104 H45         1.0490    0.5880   -5.3970 hc        1 MOL      0.030145
    105 H46         1.3940   -0.9140   -4.5670 hc        1 MOL      0.030145
    106 H47        -1.9870    1.8210   -3.7420 hc        1 MOL      0.101375
    107 H48        -0.3740    2.3260   -3.2570 hc        1 MOL      0.101375
    108 H49        -0.9060    2.1870   -4.9620 hc        1 MOL      0.101375
    109 H50         1.9390    1.7060   -3.1890 hc        1 MOL      0.065995
    110 H51         2.1410    0.0110   -2.7180 hc        1 MOL      0.065995
    111 H52         3.1250    0.7110   -4.1170 hc        1 MOL      0.065995
    112 N10        -2.9190   -1.3310   -2.1950 n         1 MOL     -0.601446
    113 C35        -4.0030   -1.6130   -1.2840 c3        1 MOL     -0.053554
    114 C36        -5.2400   -2.1060   -2.0300 c         1 MOL      0.740817
    115 O17        -5.1680   -2.7560   -3.0540 o         1 MOL     -0.549650
    116 C37        -3.5610   -2.7110   -0.3310 c3        1 MOL      0.093972
    117 C38        -2.9580   -3.9750   -0.8890 c3        1 MOL     -0.115451
    118 O18        -2.5010   -2.2320    0.4460 oh        1 MOL     -0.549784
    119 H53        -2.5320   -2.1030   -2.7210 hn        1 MOL      0.306157
    120 H54        -4.2350   -0.6910   -0.7580 h1        1 MOL      0.149547
    121 H55        -4.3430   -3.1470    0.2730 h1        1 MOL      0.043015
    122 H56        -2.5460   -2.7490    1.2540 ho        1 MOL      0.402925
    123 H57        -2.5430   -4.5800   -0.0810 hc        1 MOL      0.035291
    124 H58        -3.7580   -4.5630   -1.3450 hc        1 MOL      0.035291
    125 H59        -2.1390   -3.7280   -1.5680 hc        1 MOL      0.035291
    126 N11        -6.4120   -1.7610   -1.5600 n         1 MOL     -0.563887
    127 C39        -7.7000   -2.1740   -2.1010 c3        1 MOL     -0.078998
    128 C40        -8.7930   -1.0800   -1.9500 c         1 MOL      0.705723
    129 O19        -9.4760   -0.7770   -2.9610 o         1 MOL     -0.566482
    130 C41        -8.1010   -3.5270   -1.4930 c3        1 MOL      0.251147
    131 C42        -9.2680   -4.2510   -2.2310 c3        1 MOL     -0.354874
    132 O20        -8.5740   -3.4010   -0.2140 oh        1 MOL     -0.573765
    133 H60        -6.5040   -1.3530   -0.6440 hn        1 MOL      0.261447
    134 H61        -7.5880   -2.3260   -3.1760 h1        1 MOL      0.123411
    135 H62        -7.2490   -4.2180   -1.5070 h1        1 MOL      0.059161
    136 H63        -7.8620   -3.1310    0.3780 ho        1 MOL      0.370808
    137 H64        -9.0190   -4.4580   -3.2740 hc        1 MOL      0.107062
    138 H65        -9.5230   -5.2150   -1.7800 hc        1 MOL      0.107062
    139 H66       -10.1590   -3.6290   -2.2220 hc        1 MOL      0.107062
    140 N12        -8.9910   -0.4200   -0.7800 n         1 MOL     -0.626453
    141 C43       -10.0190    0.5740   -0.4730 c3        1 MOL      0.033495
    142 C44        -9.4770    1.3990    0.6390 c         1 MOL      0.638279
    143 O21        -9.1120    0.8480    1.7110 o         1 MOL     -0.542130
    144 C45       -11.2690   -0.1770    0.0190 c3        1 MOL     -0.002875
    145 C46       -12.4380    0.8380   -0.0660 c3        1 MOL     -0.034572
    146 C47       -13.7060    0.1560    0.3670 c3        1 MOL      0.013353
    147 C48       -14.8410    1.2520    0.3160 c3        1 MOL      0.022683
    148 N13       -16.2020    0.6880    0.3680 n4        1 MOL     -0.198633
    149 H67        -8.4420   -0.7290    0.0080 hn        1 MOL      0.319282
    150 H68       -10.3330    1.2540   -1.2690 h1        1 MOL      0.095964
    151 H69       -11.1280   -0.5310    1.0400 hc        1 MOL      0.039988
    152 H70       -11.5080   -1.0230   -0.6160 hc        1 MOL      0.039988
    153 H71       -12.4110    1.1630   -1.1070 hc        1 MOL      0.004318
    154 H72       -12.0910    1.6130    0.6060 hc        1 MOL      0.004318
    155 H73       -13.7900   -0.2470    1.3720 hc        1 MOL      0.028318
    156 H74       -13.7890   -0.6770   -0.3350 hc        1 MOL      0.028318
    157 H75       -14.7730    1.7070   -0.6710 hx        1 MOL      0.073635
    158 H76       -14.6290    1.9600    1.1210 hx        1 MOL      0.073635
    159 H77       -16.8090    1.5000    0.4170 hn        1 MOL      0.247351
    160 H78       -16.4160    0.0290   -0.3620 hn        1 MOL      0.247351
    161 H79       -16.3860    0.2560    1.2720 hn        1 MOL      0.247351
    162 N14        -9.3380    2.7140    0.4810 n         1 MOL     -0.441022
    163 C49        -8.8550    3.5910    1.5420 c3        1 MOL      0.296416
    164 C50        -7.3510    3.4760    1.7790 c         1 MOL      0.302746
    165 O22        -6.9420    3.1360    2.8640 o         1 MOL     -0.492814
    166 C51        -9.3460    5.0470    1.4760 c3        1 MOL     -0.142166
    167 C52       -10.7020    5.3860    1.8630 c3        1 MOL     -0.304457
    168 C53       -11.0940    6.8010    1.4470 c         1 MOL      0.663194
    169 O23       -10.9280    7.1420    0.2580 o         1 MOL     -0.649624
    170 O24       -11.4380    7.6320    2.3190 o         1 MOL     -0.649624
    171 H80        -9.6250    3.1470   -0.3850 hn        1 MOL      0.234837
    172 H81        -9.2740    3.2680    2.4960 h1        1 MOL      0.006547
    173 H82        -9.0820    5.4950    0.5230 hc        1 MOL      0.109500
    174 H83        -8.7710    5.5930    2.2240 hc        1 MOL      0.109500
    175 H84       -10.6600    5.2200    2.9390 hc        1 MOL      0.064088
    176 H85       -11.3640    4.6100    1.4920 hc        1 MOL      0.064088
    177 N15        -6.4410    3.8070    0.8170 n         1 MOL     -0.405647
    178 C54        -6.4780    4.2670   -0.6090 c3        1 MOL     -0.050248
    179 H86        -6.3540    3.4090   -1.2700 h1        1 MOL      0.054373
    180 H87        -7.4370    4.7450   -0.8110 h1        1 MOL      0.054373
    181 H88        -5.6720    4.9790   -0.7830 h1        1 MOL      0.054373
    182 H89        -5.5060    3.5860    1.1060 hn        1 MOL      0.321268
    183 Ca1         7.1190    4.6240   -0.1340 Ca        1 MOL      1.818597
    184 O25         5.0970    3.4100   -1.5390 oh        1 MOL     -0.910246
    185 H90         4.9990    3.0370   -2.4130 ho        1 MOL      0.445652
    186 H91         4.2990    3.1380   -1.0780 ho        1 MOL      0.445652
    187 O26         5.6220    6.7720   -0.7680 oh        1 MOL     -0.910246
    188 H92         5.9610    7.6300   -1.0150 ho        1 MOL      0.445652
    189 H93         4.7050    6.9300   -0.5340 ho        1 MOL      0.445652
    190 O27         7.3410    6.1930    1.8240 oh        1 MOL     -0.910246
    191 H94         8.1130    6.2160    2.3750 ho        1 MOL      0.445652
    192 H95         6.7550    6.8420    2.2210 ho        1 MOL      0.445652
@<TRIPOS>BOND
     1    1    2 1   
     2    1    4 1   
     3    1    5 1   
     4    1    6 1   
     5    2    3 2   
     6    2    7 1   
     7    7    8 1   
     8    7   15 1   
     9    8    9 1   
    10    8   11 1   
    11    8   16 1   
    12    9   10 2   
    13    9   19 1   
    14   11   12 1   
    15   11   17 1   
    16   11   18 1   
    17   12   13 1   
    18   12   14 1   
    19   19   20 1   
    20   19   28 1   
    21   20   21 1   
    22   20   23 1   
    23   20   29 1   
    24   21   22 2   
    25   21   41 1   
    26   23   24 1   
    27   23   30 1   
    28   23   31 1   
    29   24   25 1   
    30   24   32 1   
    31   24   33 1   
    32   25   26 1   
    33   25   34 1   
    34   25   35 1   
    35   26   27 1   
    36   26   36 1   
    37   26   37 1   
    38   27   38 1   
    39   27   39 1   
    40   27   40 1   
    41   41   42 1   
    42   41   49 1   
    43   42   43 1   
    44   42   45 1   
    45   42   50 1   
    46   43   44 2   
    47   43   53 1   
    48   45   46 1   
    49   45   51 1   
    50   45   52 1   
    51   46   47 1   
    52   46   48 1   
    53   53   54 1   
    54   53   57 1   
    55   54   55 1   
    56   54   58 1   
    57   54   59 1   
    58   55   56 2   
    59   55   60 1   
    60   60   61 1   
    61   60   68 1   
    62   61   62 1   
    63   61   64 1   
    64   61   69 1   
    65   62   63 2   
    66   62   72 1   
    67   64   65 1   
    68   64   70 1   
    69   64   71 1   
    70   65   66 1   
    71   65   67 1   
    72   72   73 1   
    73   72   76 1   
    74   73   74 1   
    75   73   77 1   
    76   73   78 1   
    77   74   75 2   
    78   74   79 1   
    79   79   80 1   
    80   79   86 1   
    81   80   81 1   
    82   80   83 1   
    83   80   87 1   
    84   81   82 2   
    85   81   93 1   
    86   83   84 1   
    87   83   85 1   
    88   83   88 1   
    89   84   90 1   
    90   84   91 1   
    91   84   92 1   
    92   85   89 1   
    93   93   94 1   
    94   93  101 1   
    95   94   95 1   
    96   94   97 1   
    97   94  102 1   
    98   95   96 2   
    99   95  112 1   
   100   97   98 1   
   101   97   99 1   
   102   97  103 1   
   103   98  100 1   
   104   98  104 1   
   105   98  105 1   
   106   99  106 1   
   107   99  107 1   
   108   99  108 1   
   109  100  109 1   
   110  100  110 1   
   111  100  111 1   
   112  112  113 1   
   113  112  119 1   
   114  113  114 1   
   115  113  116 1   
   116  113  120 1   
   117  114  115 2   
   118  114  126 1   
   119  116  117 1   
   120  116  118 1   
   121  116  121 1   
   122  117  123 1   
   123  117  124 1   
   124  117  125 1   
   125  118  122 1   
   126  126  127 1   
   127  126  133 1   
   128  127  128 1   
   129  127  130 1   
   130  127  134 1   
   131  128  129 2   
   132  128  140 1   
   133  130  131 1   
   134  130  132 1   
   135  130  135 1   
   136  131  137 1   
   137  131  138 1   
   138  131  139 1   
   139  132  136 1   
   140  140  141 1   
   141  140  149 1   
   142  141  142 1   
   143  141  144 1   
   144  141  150 1   
   145  142  143 2   
   146  142  162 1   
   147  144  145 1   
   148  144  151 1   
   149  144  152 1   
   150  145  146 1   
   151  145  153 1   
   152  145  154 1   
   153  146  147 1   
   154  146  155 1   
   155  146  156 1   
   156  147  148 1   
   157  147  157 1   
   158  147  158 1   
   159  148  159 1   
   160  148  160 1   
   161  148  161 1   
   162  162  163 1   
   163  162  171 1   
   164  163  164 1   
   165  163  166 1   
   166  163  172 1   
   167  164  165 2   
   168  164  177 1   
   169  166  167 1   
   170  166  173 1   
   171  166  174 1   
   172  167  168 1   
   173  167  175 1   
   174  167  176 1   
   175  168  169 1   
   176  168  170 1   
   177  177  178 1   
   178  177  182 1   
   179  178  179 1   
   180  178  180 1   
   181  178  181 1   
   182  184  185 1   
   183  184  186 1   
   184  187  188 1   
   185  187  189 1   
   186  190  191 1   
   187  190  192 1   
@<TRIPOS>SUBSTRUCTURE
     1 MOL         1 TEMP              0 ****  ****    0 ROOT
