@<TRIPOS>MOLECULE
MOL
  181   177     1     0     0
SMALL
resp


@<TRIPOS>ATOM
      1 C1          6.7630   -5.2560    5.4300 c3        1 MOL     -0.334143
      2 C2          6.2490   -3.9000    4.8160 c         1 MOL      0.690342
      3 O1          5.5720   -3.0520    5.4000 o         1 MOL     -0.565567
      4 H1          6.7170   -5.2020    6.5180 hc        1 MOL      0.078336
      5 H2          6.1350   -6.0750    5.0810 hc        1 MOL      0.078336
      6 H3          7.7930   -5.4290    5.1190 hc        1 MOL      0.078336
      7 N1          6.5470   -3.6890    3.5350 n         1 MOL     -0.627475
      8 C3          7.6330   -4.2070    2.6060 c3        1 MOL      0.340710
      9 C4          7.0350   -4.6060    1.2690 c         1 MOL      0.298850
     10 O2          5.8370   -4.4180    1.1270 o         1 MOL     -0.387082
     11 C5          8.7710   -3.1420    2.3920 c3        1 MOL     -0.333539
     12 C6          8.2910   -1.9010    1.6260 c         1 MOL      0.818556
     13 O3          8.3570   -1.8900    0.3460 o         1 MOL     -0.753256
     14 O4          7.8460   -0.8240    2.1430 o         1 MOL     -0.753256
     15 H4          5.9610   -3.0040    3.0810 hn        1 MOL      0.355112
     16 H5          8.0750   -5.1180    3.0250 h1        1 MOL      0.006348
     17 H6          9.5480   -3.6610    1.8150 hc        1 MOL      0.054413
     18 H7          9.1940   -2.8520    3.3490 hc        1 MOL      0.054413
     19 N2          7.8150   -5.1240    0.3450 n         1 MOL     -0.431488
     20 C7          7.4320   -5.6520   -0.9690 c3        1 MOL      0.378058
     21 C8          6.3410   -4.8520   -1.7270 c         1 MOL      0.360346
     22 O5          5.5040   -5.4950   -2.3030 o         1 MOL     -0.504953
     23 C9          7.0510   -7.1760   -0.8400 c3        1 MOL     -0.398580
     24 H8          8.7140   -5.4010    0.7080 hn        1 MOL      0.253432
     25 H9          8.3240   -5.6120   -1.5920 h1        1 MOL     -0.022277
     26 H10         7.0970   -7.6490   -1.8220 hc        1 MOL      0.101756
     27 H11         7.7380   -7.7340   -0.2020 hc        1 MOL      0.101756
     28 H12         6.0490   -7.2080   -0.4090 hc        1 MOL      0.101756
     29 N3          6.3350   -3.5340   -1.5970 n         1 MOL     -0.295526
     30 C10         5.3450   -2.6050   -2.2810 c3        1 MOL      0.243125
     31 C11         5.9640   -1.2860   -2.7620 c         1 MOL      0.347398
     32 O6          7.0040   -0.8860   -2.2210 o         1 MOL     -0.533507
     33 C12         4.0030   -2.4350   -1.5420 c3        1 MOL     -0.341823
     34 C13         3.9910   -1.6250   -0.2030 c         1 MOL      0.643844
     35 O7          5.0330   -1.1010    0.2060 o         1 MOL     -0.636992
     36 O8          2.9400   -1.5260    0.5150 o         1 MOL     -0.636992
     37 H13         7.0440   -3.1240   -0.9980 hn        1 MOL      0.128691
     38 H14         5.0970   -3.1000   -3.2180 h1        1 MOL     -0.005202
     39 H15         3.5880   -3.4240   -1.3230 hc        1 MOL      0.116520
     40 H16         3.3600   -1.8710   -2.2200 hc        1 MOL      0.116520
     41 N4          5.2720   -0.5750   -3.6160 n         1 MOL     -0.247949
     42 C14         5.5340    0.8220   -3.9750 c3        1 MOL     -0.423438
     43 C15         5.2230    1.9150   -2.9400 c         1 MOL      0.955936
     44 O9          5.3760    1.6370   -1.8100 o         1 MOL     -0.704167
     45 H17         4.4240   -0.9810   -4.0090 hn        1 MOL      0.292271
     46 H18         5.0240    1.0550   -4.9170 h1        1 MOL      0.144243
     47 H19         6.5880    0.8840   -4.2330 h1        1 MOL      0.144243
     48 N5          4.8480    3.0890   -3.3920 n         1 MOL     -0.735600
     49 C16         4.6370    4.2940   -2.4970 c3        1 MOL      0.423231
     50 C17         3.3930    4.1440   -1.5980 c         1 MOL      0.500055
     51 O10         2.4280    3.4260   -1.9050 o         1 MOL     -0.448967
     52 C18         4.6670    5.5790   -3.3750 c3        1 MOL     -0.541228
     53 C19         5.9790    5.7410   -4.1600 c         1 MOL      0.772182
     54 N6          6.0330    5.4880   -5.4410 n         1 MOL     -0.807150
     55 O11         7.0230    5.8220   -3.5940 o         1 MOL     -0.566394
     56 H20         4.6970    3.1230   -4.3890 hn        1 MOL      0.302601
     57 H21         5.5610    4.3420   -1.9130 h1        1 MOL      0.009052
     58 H22         4.4610    6.4570   -2.7560 hc        1 MOL      0.144692
     59 H23         3.8460    5.5020   -4.0870 hc        1 MOL      0.144692
     60 H24         5.1930    5.3130   -5.9820 hn        1 MOL      0.361896
     61 H25         6.8830    5.5230   -5.9820 hn        1 MOL      0.361896
     62 N7          3.3950    4.9600   -0.5240 n         1 MOL     -0.533700
     63 C20         2.2700    4.9910    0.4090 c3        1 MOL      0.094176
     64 C21         0.9610    5.6570   -0.0310 c         1 MOL      0.644668
     65 O12         0.8650    6.3990   -0.9990 o         1 MOL     -0.570127
     66 H26         4.2350    5.4170   -0.1940 hn        1 MOL      0.291988
     67 H27         2.5290    5.4440    1.3650 h1        1 MOL      0.035798
     68 H28         1.9620    3.9830    0.6610 h1        1 MOL      0.035798
     69 N8         -0.1610    5.4650    0.6670 n         1 MOL     -0.556492
     70 C22        -0.3940    4.7000    1.9100 c3        1 MOL     -0.042712
     71 C23        -1.5370    3.7630    1.7880 c         1 MOL      0.664457
     72 O13        -2.2800    3.8130    0.7720 o         1 MOL     -0.492433
     73 C24        -0.6100    5.6940    3.0600 c3        1 MOL      0.416037
     74 C25         0.7060    6.2590    3.3990 c3        1 MOL     -0.127189
     75 O14        -1.4360    6.8150    2.7490 oh        1 MOL     -0.620856
     76 H29        -0.9770    5.9150    0.2680 hn        1 MOL      0.339029
     77 H30         0.4590    4.0800    2.1890 h1        1 MOL      0.066320
     78 H31        -0.9650    5.2430    3.9900 h1        1 MOL     -0.008848
     79 H32        -2.3660    6.5850    2.7430 ho        1 MOL      0.406111
     80 H33         0.6660    6.8480    4.3110 hc        1 MOL      0.014318
     81 H34         1.3730    5.4160    3.5960 hc        1 MOL      0.014318
     82 H35         1.1060    6.8260    2.5670 hc        1 MOL      0.014318
     83 N9         -1.7490    2.8970    2.8520 n         1 MOL     -0.692084
     84 C26        -2.8700    2.0200    3.0430 c3        1 MOL      0.086421
     85 C27        -4.0740    2.8210    3.4540 c         1 MOL      0.665839
     86 O15        -4.1060    3.4570    4.4920 o         1 MOL     -0.610791
     87 C28        -2.4820    0.9000    4.0070 c3        1 MOL      0.085744
     88 C29        -1.3440    0.0470    3.4410 c3        1 MOL     -0.019921
     89 C30        -3.7050    0.0180    4.3050 c3        1 MOL     -0.374533
     90 C31        -1.3910   -0.3400    1.9550 c3        1 MOL     -0.073693
     91 H36        -1.1850    2.9130    3.6910 hn        1 MOL      0.310197
     92 H37        -3.2060    1.5450    2.1200 h1        1 MOL      0.084134
     93 H38        -2.1180    1.3860    4.9080 hc        1 MOL     -0.005747
     94 H39        -1.3720   -0.8910    3.9990 hc        1 MOL      0.004961
     95 H40        -0.3800    0.4670    3.7100 hc        1 MOL      0.004961
     96 H41        -3.4350   -0.8700    4.8710 hc        1 MOL      0.101789
     97 H42        -4.4620    0.5670    4.8630 hc        1 MOL      0.101789
     98 H43        -4.2180   -0.3180    3.3980 hc        1 MOL      0.101789
     99 H44        -0.4570   -0.8200    1.6590 hc        1 MOL      0.036622
    100 H45        -2.2520   -0.9340    1.6690 hc        1 MOL      0.036622
    101 H46        -1.3690    0.5770    1.3570 hc        1 MOL      0.036622
    102 N10        -5.1970    2.8010    2.6920 n         1 MOL     -0.669148
    103 C32        -5.2920    2.6150    1.2320 c3        1 MOL      0.167066
    104 C33        -6.3620    1.5690    0.8670 c         1 MOL      0.531431
    105 O16        -7.1220    1.0390    1.7260 o         1 MOL     -0.529789
    106 C34        -5.6520    4.0160    0.5540 c3        1 MOL     -0.000875
    107 C35        -6.8540    4.7070    1.1500 c         1 MOL      0.742375
    108 O17        -8.0060    4.5140    0.7050 o         1 MOL     -0.743014
    109 O18        -6.5750    5.5170    2.0910 o         1 MOL     -0.743014
    110 H47        -5.8690    3.3660    3.1820 hn        1 MOL      0.372501
    111 H48        -4.3630    2.2580    0.7850 h1        1 MOL      0.040316
    112 H49        -5.7900    3.8470   -0.5200 hc        1 MOL     -0.049247
    113 H50        -4.8160    4.7190    0.6000 hc        1 MOL     -0.049247
    114 N11        -6.4990    1.3130   -0.4330 n         1 MOL     -0.602709
    115 C36        -7.4470    0.2600   -0.9350 c3        1 MOL      0.225982
    116 C37        -7.0360   -0.3420   -2.2580 c         1 MOL      0.375740
    117 O19        -6.4390    0.3570   -3.0970 o         1 MOL     -0.463518
    118 C38        -8.8380    1.0020   -0.9760 c3        1 MOL     -0.114117
    119 C39       -10.1590    0.1510   -0.9300 ca        1 MOL      0.049300
    120 C40       -10.5740   -0.4110   -2.1440 ca        1 MOL     -0.117611
    121 C41       -10.8940   -0.0920    0.2700 ca        1 MOL     -0.117611
    122 C42       -11.7740   -1.0760   -2.2800 ca        1 MOL     -0.154182
    123 C43       -12.0230   -0.9210    0.1510 ca        1 MOL     -0.154182
    124 C44       -12.4560   -1.4410   -1.1310 ca        1 MOL     -0.113252
    125 H51        -5.9640    1.8390   -1.1140 hn        1 MOL      0.352825
    126 H52        -7.3920   -0.4760   -0.1230 h1        1 MOL      0.047820
    127 H53        -8.9660    1.5280   -1.9270 hc        1 MOL      0.062565
    128 H54        -8.8650    1.7000   -0.1350 hc        1 MOL      0.062565
    129 H55       -10.0200   -0.0770   -3.0130 ha        1 MOL      0.133936
    130 H56       -10.5550    0.2400    1.2380 ha        1 MOL      0.133936
    131 H57       -12.1530   -1.3410   -3.2550 ha        1 MOL      0.102687
    132 H58       -12.6110   -1.2220    1.0010 ha        1 MOL      0.102687
    133 H59       -13.3300   -2.0630   -1.1740 ha        1 MOL      0.089185
    134 N12        -7.3860   -1.6430   -2.4480 n         1 MOL     -0.059202
    135 C45        -8.0420   -2.5210   -1.4950 c3        1 MOL     -0.312189
    136 C46        -7.1750   -3.2500   -0.3660 c         1 MOL      0.647279
    137 O20        -7.6270   -3.4720    0.7620 o         1 MOL     -0.574200
    138 C47        -8.5070   -3.7110   -2.4070 c3        1 MOL      0.048692
    139 C48        -8.3260   -3.2320   -3.8500 c3        1 MOL     -0.029881
    140 C49        -7.1200   -2.3620   -3.5900 c3        1 MOL     -0.229969
    141 H60        -8.9950   -2.1780   -1.1130 h1        1 MOL      0.155406
    142 H61        -7.8820   -4.5730   -2.2030 hc        1 MOL      0.027609
    143 H62        -9.5220   -4.0950   -2.2450 hc        1 MOL      0.027609
    144 H63        -8.1970   -4.0720   -4.5350 hc        1 MOL      0.017569
    145 H64        -9.1530   -2.6830   -4.2900 hc        1 MOL      0.017569
    146 H65        -6.2000   -2.9300   -3.5120 h1        1 MOL      0.123863
    147 H66        -6.9850   -1.5810   -4.3400 h1        1 MOL      0.123863
    148 N13        -5.8920   -3.5900   -0.7310 n         1 MOL     -0.419252
    149 C50        -5.0980   -4.4980    0.1180 c3        1 MOL      0.281302
    150 C51        -5.5680   -5.9820    0.0020 c         1 MOL      0.314151
    151 O21        -5.5530   -6.5340   -1.0960 o         1 MOL     -0.528571
    152 C52        -3.6930   -4.4750   -0.4010 c3        1 MOL      0.116792
    153 C53        -3.0510   -3.0740   -0.5800 c3        1 MOL     -0.386433
    154 C54        -3.1630   -2.4390   -1.9500 c         1 MOL      0.784013
    155 O22        -2.8150   -3.0170   -2.9880 o         1 MOL     -0.685445
    156 O23        -3.6330   -1.2940   -2.1140 o         1 MOL     -0.685445
    157 H67        -5.5310   -3.1970   -1.5870 hn        1 MOL      0.253067
    158 H68        -4.9940   -4.1390    1.1380 h1        1 MOL      0.016925
    159 H69        -3.6770   -4.9500   -1.3810 hc        1 MOL     -0.014446
    160 H70        -3.0730   -5.0900    0.2650 hc        1 MOL     -0.014446
    161 H71        -1.9920   -3.1990   -0.3290 hc        1 MOL      0.066684
    162 H72        -3.4780   -2.4130    0.1760 hc        1 MOL      0.066684
    163 N14        -6.0700   -6.7040    1.0300 n         1 MOL     -0.352547
    164 C55        -6.4800   -6.1020    2.3190 c3        1 MOL     -0.088378
    165 H73        -5.5940   -5.8800    2.9130 h1        1 MOL      0.062688
    166 H74        -7.0310   -5.1800    2.1310 h1        1 MOL      0.062688
    167 H75        -7.1160   -6.8010    2.8620 h1        1 MOL      0.062688
    168 H76        -6.3570   -7.6280    0.7530 hn        1 MOL      0.277451
    169 Ca1         7.0650    0.4350   -0.0020 Ca        1 MOL      1.769270
    170 O24         9.6460    1.3060    0.9930 oh        1 MOL     -0.806580
    171 H77         9.7080    1.8000    1.8120 ho        1 MOL      0.384796
    172 H78        10.3710    1.6350    0.4650 ho        1 MOL      0.384796
    173 O25         5.4010    1.3450    1.9760 oh        1 MOL     -0.806580
    174 H79         5.2050    2.2370    2.2660 ho        1 MOL      0.384796
    175 H80         4.6330    0.8410    2.2230 ho        1 MOL      0.384796
    176 O26         8.7400    1.6680   -1.7870 oh        1 MOL     -0.806580
    177 H81         8.5730    2.2350   -2.5390 ho        1 MOL      0.384796
    178 H82         9.5320    1.1940   -2.0360 ho        1 MOL      0.384796
    179 O27         6.9570    3.3130    0.4970 oh        1 MOL     -0.806580
    180 H83         7.8550    3.6340    0.4270 ho        1 MOL      0.384796
    181 H84         6.5860    3.7740    1.2440 ho        1 MOL      0.384796
@<TRIPOS>BOND
     1    1    2 1   
     2    1    4 1   
     3    1    5 1   
     4    1    6 1   
     5    2    3 2   
     6    2    7 1   
     7    7    8 1   
     8    7   15 1   
     9    8    9 1   
    10    8   11 1   
    11    8   16 1   
    12    9   10 2   
    13    9   19 1   
    14   11   12 1   
    15   11   17 1   
    16   11   18 1   
    17   12   13 1   
    18   12   14 1   
    19   19   20 1   
    20   19   24 1   
    21   20   21 1   
    22   20   23 1   
    23   20   25 1   
    24   21   22 2   
    25   21   29 1   
    26   23   26 1   
    27   23   27 1   
    28   23   28 1   
    29   29   30 1   
    30   29   37 1   
    31   30   31 1   
    32   30   33 1   
    33   30   38 1   
    34   31   32 2   
    35   31   41 1   
    36   33   34 1   
    37   33   39 1   
    38   33   40 1   
    39   34   35 1   
    40   34   36 1   
    41   41   42 1   
    42   41   45 1   
    43   42   43 1   
    44   42   46 1   
    45   42   47 1   
    46   43   44 2   
    47   43   48 1   
    48   48   49 1   
    49   48   56 1   
    50   49   50 1   
    51   49   52 1   
    52   49   57 1   
    53   50   51 2   
    54   50   62 1   
    55   52   53 1   
    56   52   58 1   
    57   52   59 1   
    58   53   54 1   
    59   53   55 2   
    60   54   60 1   
    61   54   61 1   
    62   62   63 1   
    63   62   66 1   
    64   63   64 1   
    65   63   67 1   
    66   63   68 1   
    67   64   65 2   
    68   64   69 1   
    69   69   70 1   
    70   69   76 1   
    71   70   71 1   
    72   70   73 1   
    73   70   77 1   
    74   71   72 2   
    75   71   83 1   
    76   73   74 1   
    77   73   75 1   
    78   73   78 1   
    79   74   80 1   
    80   74   81 1   
    81   74   82 1   
    82   75   79 1   
    83   83   84 1   
    84   83   91 1   
    85   84   85 1   
    86   84   87 1   
    87   84   92 1   
    88   85   86 2   
    89   85  102 1   
    90   87   88 1   
    91   87   89 1   
    92   87   93 1   
    93   88   90 1   
    94   88   94 1   
    95   88   95 1   
    96   89   96 1   
    97   89   97 1   
    98   89   98 1   
    99   90   99 1   
   100   90  100 1   
   101   90  101 1   
   102  102  103 1   
   103  102  110 1   
   104  103  104 1   
   105  103  106 1   
   106  103  111 1   
   107  104  105 2   
   108  104  114 1   
   109  106  107 1   
   110  106  112 1   
   111  106  113 1   
   112  107  108 1   
   113  107  109 1   
   114  114  115 1   
   115  114  125 1   
   116  115  116 1   
   117  115  118 1   
   118  115  126 1   
   119  116  117 2   
   120  116  134 1   
   121  118  119 1   
   122  118  127 1   
   123  118  128 1   
   124  119  120 ar  
   125  119  121 ar  
   126  120  122 ar  
   127  120  129 1   
   128  121  123 ar  
   129  121  130 1   
   130  122  124 ar  
   131  122  131 1   
   132  123  124 ar  
   133  123  132 1   
   134  124  133 1   
   135  134  135 1   
   136  134  140 1   
   137  135  136 1   
   138  135  138 1   
   139  135  141 1   
   140  136  137 2   
   141  136  148 1   
   142  138  139 1   
   143  138  142 1   
   144  138  143 1   
   145  139  140 1   
   146  139  144 1   
   147  139  145 1   
   148  140  146 1   
   149  140  147 1   
   150  148  149 1   
   151  148  157 1   
   152  149  150 1   
   153  149  152 1   
   154  149  158 1   
   155  150  151 2   
   156  150  163 1   
   157  152  153 1   
   158  152  159 1   
   159  152  160 1   
   160  153  154 1   
   161  153  161 1   
   162  153  162 1   
   163  154  155 1   
   164  154  156 1   
   165  163  164 1   
   166  163  168 1   
   167  164  165 1   
   168  164  166 1   
   169  164  167 1   
   170  170  171 1   
   171  170  172 1   
   172  173  174 1   
   173  173  175 1   
   174  176  177 1   
   175  176  178 1   
   176  179  180 1   
   177  179  181 1   
@<TRIPOS>SUBSTRUCTURE
     1 MOL         1 TEMP              0 ****  ****    0 ROOT
