@<TRIPOS>MOLECULE
MOL
  178   175     1     0     0
SMALL
resp


@<TRIPOS>ATOM
      1 C1          1.3580    6.3540   -1.3630 c3        1 MOL     -0.433380
      2 C2          2.7610    6.2170   -0.8260 c         1 MOL      0.703287
      3 O1          2.9510    6.6450    0.3220 o         1 MOL     -0.621669
      4 H1          0.9360    7.3050   -1.0360 hc        1 MOL      0.105785
      5 H2          1.3810    6.3230   -2.4520 hc        1 MOL      0.105785
      6 H3          0.7440    5.5360   -0.9880 hc        1 MOL      0.105785
      7 N1          3.7450    5.7960   -1.5710 n         1 MOL     -0.553428
      8 C3          5.1950    5.6690   -0.9920 c3        1 MOL      0.143075
      9 C4          5.4490    4.3850   -0.2460 c         1 MOL      0.489892
     10 O2          5.3830    3.2430   -0.7660 o         1 MOL     -0.534212
     11 C5          6.1150    5.9040   -2.1550 c3        1 MOL     -0.272610
     12 C6          7.5560    5.9650   -1.7600 c         1 MOL      0.694920
     13 O3          8.2390    6.9800   -1.7710 o         1 MOL     -0.714721
     14 O4          8.0850    4.9070   -1.3680 o         1 MOL     -0.714721
     15 H4          3.5630    5.5200   -2.5280 hn        1 MOL      0.307795
     16 H5          5.3690    6.4700   -0.2720 h1        1 MOL      0.080782
     17 H6          5.7500    6.7890   -2.6850 hc        1 MOL      0.047729
     18 H7          5.9920    5.1020   -2.8830 hc        1 MOL      0.047729
     19 N2          5.7690    4.5400    1.0850 n         1 MOL     -0.508434
     20 C7          5.6910    3.4300    2.0920 c3        1 MOL      0.455086
     21 C8          4.3690    2.6980    2.1700 c         1 MOL      0.212893
     22 O5          3.3980    3.3140    1.8950 o         1 MOL     -0.489158
     23 C9          6.2930    3.8960    3.4010 c3        1 MOL     -0.398002
     24 H8          5.7610    5.4650    1.4890 hn        1 MOL      0.284244
     25 H9          6.4270    2.7320    1.6890 h1        1 MOL      0.070555
     26 H10         6.4970    3.1180    4.1330 hc        1 MOL      0.093518
     27 H11         7.2050    4.4550    3.1800 hc        1 MOL      0.093518
     28 H12         5.6010    4.6000    3.8630 hc        1 MOL      0.093518
     29 N3          4.1740    1.4640    2.6280 n         1 MOL     -0.132844
     30 C10         5.1970    0.5040    3.0010 c3        1 MOL     -0.175554
     31 C11         5.6830   -0.3570    1.7970 c         1 MOL      0.397066
     32 O6          5.3110   -0.0970    0.6300 o         1 MOL     -0.365503
     33 C12         4.7040   -0.3440    4.2470 c3        1 MOL     -0.140681
     34 C13         3.2660   -0.9520    4.0290 c         1 MOL      0.620770
     35 O7          2.6880   -0.9770    2.9460 o         1 MOL     -0.680810
     36 O8          2.5990   -1.2550    5.0520 o         1 MOL     -0.680810
     37 H13         3.2120    1.1630    2.5520 hn        1 MOL      0.190196
     38 H14         6.0190    1.0780    3.4330 h1        1 MOL      0.068485
     39 H15         4.6840    0.4150    5.0340 hc        1 MOL      0.058169
     40 H16         5.4370   -1.0780    4.5820 hc        1 MOL      0.058169
     41 N4          6.5790   -1.3270    2.1780 n         1 MOL     -0.397994
     42 C14         7.2640   -2.1770    1.2390 c3        1 MOL     -0.133923
     43 C15         8.1930   -1.4000    0.2440 c         1 MOL      0.557109
     44 O9          8.6260   -0.2800    0.4650 o         1 MOL     -0.480716
     45 H17         6.5950   -1.4040    3.1880 hn        1 MOL      0.319504
     46 H18         6.4480   -2.5320    0.6030 h1        1 MOL      0.107536
     47 H19         7.7910   -3.0150    1.7210 h1        1 MOL      0.107536
     48 N5          8.4050   -1.9090   -0.9800 n         1 MOL     -0.593239
     49 C16         7.7120   -3.0050   -1.6690 c3        1 MOL      0.351254
     50 C17         6.4300   -2.3230   -2.3340 c         1 MOL      0.352325
     51 O10         6.3770   -1.0960   -2.5780 o         1 MOL     -0.445474
     52 C18         8.6970   -3.6890   -2.5730 c3        1 MOL     -0.410316
     53 C19         9.9450   -4.2030   -1.8420 c         1 MOL      0.778795
     54 N6         11.0570   -4.2610   -2.4580 n         1 MOL     -0.820037
     55 O11         9.8910   -4.6410   -0.7320 o         1 MOL     -0.583820
     56 H20         8.9080   -1.3160   -1.6180 hn        1 MOL      0.348101
     57 H21         7.3370   -3.7590   -0.9860 h1        1 MOL     -0.002972
     58 H22         9.0180   -2.9150   -3.2680 hc        1 MOL      0.086772
     59 H23         8.3400   -4.5120   -3.1900 hc        1 MOL      0.086772
     60 H24        11.0400   -4.1970   -3.4710 hn        1 MOL      0.368944
     61 H25        11.8610   -4.5490   -1.9280 hn        1 MOL      0.368944
     62 N7          5.3410   -3.0520   -2.4440 n         1 MOL     -0.320457
     63 C20         3.9940   -2.5940   -2.6470 c3        1 MOL      0.056720
     64 C21         2.9200   -3.5810   -2.2680 c         1 MOL      0.410783
     65 O12         3.0540   -4.7450   -2.6330 o         1 MOL     -0.519525
     66 H26         5.4040   -4.0590   -2.3370 hn        1 MOL      0.228658
     67 H27         3.8790   -2.4900   -3.7240 h1        1 MOL      0.043215
     68 H28         3.8000   -1.6030   -2.2420 h1        1 MOL      0.043215
     69 N8          1.9130   -3.1750   -1.4470 n         1 MOL     -0.264064
     70 C22         0.8540   -4.0390   -0.9060 c3        1 MOL     -0.038423
     71 C23        -0.4720   -3.3160   -0.8430 c         1 MOL      0.254792
     72 O13        -0.5740   -2.1510   -0.4230 o         1 MOL     -0.451590
     73 C24         1.0890   -4.5850    0.4910 c3        1 MOL      0.409415
     74 C25         2.3140   -5.5020    0.4740 c3        1 MOL     -0.526697
     75 O14         1.4660   -3.5380    1.3350 oh        1 MOL     -0.722821
     76 H29         1.9940   -2.2160   -1.1500 hn        1 MOL      0.242149
     77 H30         0.7000   -4.9290   -1.5270 h1        1 MOL      0.090040
     78 H31         0.2820   -5.1580    0.9470 h1        1 MOL      0.050540
     79 H32         1.7560   -4.0240    2.1050 ho        1 MOL      0.444450
     80 H33         3.2110   -4.8910    0.4120 hc        1 MOL      0.130678
     81 H34         2.4360   -6.1250    1.3740 hc        1 MOL      0.130678
     82 H35         2.2780   -6.0410   -0.4690 hc        1 MOL      0.130678
     83 N9         -1.4700   -3.9440   -1.3880 n         1 MOL     -0.184810
     84 C26        -2.8460   -3.4260   -1.4030 c3        1 MOL     -0.284930
     85 C27        -3.4890   -3.5520   -0.0110 c         1 MOL      0.684621
     86 O15        -3.8250   -4.6860    0.3560 o         1 MOL     -0.593520
     87 C28        -3.6070   -3.9160   -2.5750 c3        1 MOL      0.237710
     88 C29        -5.0130   -3.3900   -2.7450 c3        1 MOL     -0.167680
     89 C30        -2.8750   -3.5920   -3.9000 c3        1 MOL     -0.312813
     90 C31        -5.1860   -1.8490   -2.6250 c3        1 MOL      0.035711
     91 H36        -1.3500   -4.9090   -1.6700 hn        1 MOL      0.228634
     92 H37        -2.5920   -2.3700   -1.5380 h1        1 MOL      0.173081
     93 H38        -3.7660   -5.0000   -2.4990 hc        1 MOL      0.004564
     94 H39        -5.7040   -3.8790   -2.0500 hc        1 MOL      0.034888
     95 H40        -5.3810   -3.6410   -3.7400 hc        1 MOL      0.034888
     96 H41        -2.8150   -2.5040   -4.0070 hc        1 MOL      0.071421
     97 H42        -1.8460   -3.9200   -3.9480 hc        1 MOL      0.071421
     98 H43        -3.3590   -4.0650   -4.7550 hc        1 MOL      0.071421
     99 H44        -4.9260   -1.5540   -1.6130 hc        1 MOL      0.002768
    100 H45        -4.6460   -1.3000   -3.3980 hc        1 MOL      0.002768
    101 H46        -6.2310   -1.5830   -2.7500 hc        1 MOL      0.002768
    102 N10        -3.8430   -2.4860    0.6740 n         1 MOL     -0.443746
    103 C32        -4.4370   -2.4450    1.9610 c3        1 MOL      0.027866
    104 C33        -5.8100   -1.6240    2.0840 c         1 MOL      0.436462
    105 O16        -6.3370   -1.4360    3.1880 o         1 MOL     -0.540292
    106 C34        -3.5160   -2.0890    3.0820 c3        1 MOL      0.040218
    107 C35        -2.2400   -2.9130    3.1560 c         1 MOL      0.605735
    108 O17        -2.2480   -3.9940    3.8580 o         1 MOL     -0.694221
    109 O18        -1.2040   -2.5250    2.6080 o         1 MOL     -0.694221
    110 H47        -3.4910   -1.5880    0.3550 hn        1 MOL      0.419714
    111 H48        -4.6970   -3.4620    2.2430 h1        1 MOL      0.077034
    112 H49        -4.0850   -2.1410    4.0050 hc        1 MOL     -0.027878
    113 H50        -3.2340   -1.0590    2.8980 hc        1 MOL     -0.027878
    114 N11        -6.3600   -1.1930    0.9680 n         1 MOL     -0.376729
    115 C36        -7.6020   -0.4390    0.8130 c3        1 MOL      0.454062
    116 C37        -7.2110    0.9620    0.2200 c         1 MOL      0.125210
    117 O19        -7.4390    1.2690   -0.9620 o         1 MOL     -0.404619
    118 C38        -8.5370   -1.2070    0.0100 c3        1 MOL     -0.375615
    119 C39        -9.9520   -0.5390   -0.0830 ca        1 MOL      0.095346
    120 C40       -10.7000   -0.1070    1.0480 ca        1 MOL     -0.140024
    121 C41       -10.5990   -0.2860   -1.3240 ca        1 MOL     -0.140024
    122 C42       -12.0270    0.3640    0.9720 ca        1 MOL     -0.124162
    123 C43       -11.9100    0.1350   -1.3720 ca        1 MOL     -0.124162
    124 C44       -12.6460    0.4190   -0.2640 ca        1 MOL     -0.097212
    125 H51        -5.8000   -1.2120    0.1360 hn        1 MOL      0.112570
    126 H52        -7.9800   -0.3540    1.8280 h1        1 MOL      0.013623
    127 H53        -8.5620   -2.1920    0.4830 hc        1 MOL      0.133036
    128 H54        -8.1020   -1.3090   -0.9790 hc        1 MOL      0.133036
    129 H55       -10.2710   -0.1200    2.0390 ha        1 MOL      0.103974
    130 H56       -10.0980   -0.6600   -2.2090 ha        1 MOL      0.103974
    131 H57       -12.6760    0.7010    1.7650 ha        1 MOL      0.099674
    132 H58       -12.4100    0.1350   -2.3260 ha        1 MOL      0.099674
    133 H59       -13.6990    0.6560   -0.2890 ha        1 MOL      0.092011
    134 N12        -6.5650    1.8260    1.0780 n         1 MOL      0.023074
    135 C45        -6.2280    3.2240    0.6960 c3        1 MOL     -0.087565
    136 C46        -5.4260    3.5060   -0.5520 c         1 MOL      0.256058
    137 O20        -5.4860    4.6110   -1.0940 o         1 MOL     -0.515218
    138 C47        -5.7240    3.8990    2.0020 c3        1 MOL     -0.057341
    139 C48        -6.4520    3.1920    3.1600 c3        1 MOL     -0.243130
    140 C49        -6.3080    1.7210    2.5440 c3        1 MOL     -0.046569
    141 H60        -7.1650    3.7150    0.4250 h1        1 MOL      0.115450
    142 H61        -4.6400    3.7890    2.1020 hc        1 MOL      0.071761
    143 H62        -6.0580    4.9280    2.1110 hc        1 MOL      0.071761
    144 H63        -5.8750    3.3650    4.0700 hc        1 MOL      0.094576
    145 H64        -7.4840    3.5340    3.1440 hc        1 MOL      0.094576
    146 H65        -5.3020    1.3220    2.6870 h1        1 MOL      0.082102
    147 H66        -7.0530    1.0320    2.9510 h1        1 MOL      0.082102
    148 N13        -4.7060    2.5470   -1.1110 n         1 MOL      0.025064
    149 C50        -3.9100    2.6580   -2.3440 c3        1 MOL     -0.277103
    150 C51        -4.8430    2.6070   -3.5270 c         1 MOL      0.636837
    151 O21        -4.6200    3.3560   -4.4750 o         1 MOL     -0.579559
    152 C52        -2.8670    1.5170   -2.4270 c3        1 MOL      0.101096
    153 C53        -1.9440    1.2370   -1.2520 c3        1 MOL     -0.107808
    154 C54        -2.5540    0.5430   -0.0490 c         1 MOL      0.517772
    155 O22        -1.7460    0.3300    0.9130 o         1 MOL     -0.644570
    156 O23        -3.7480    0.1210   -0.1850 o         1 MOL     -0.644570
    157 H67        -4.7020    1.6700   -0.6090 hn        1 MOL      0.194464
    158 H68        -3.4050    3.6210   -2.4380 h1        1 MOL      0.131897
    159 H69        -2.2770    1.7400   -3.3090 hc        1 MOL     -0.021326
    160 H70        -3.3930    0.5950   -2.7020 hc        1 MOL     -0.021326
    161 H71        -1.4500    2.1630   -0.9590 hc        1 MOL      0.017025
    162 H72        -1.0680    0.6210   -1.4710 hc        1 MOL      0.017025
    163 N14        -5.9180    1.8370   -3.4310 n         1 MOL     -0.294397
    164 C55        -7.0360    2.0210   -4.3950 c3        1 MOL     -0.270132
    165 H73        -7.6270    2.8900   -4.1050 h1        1 MOL      0.112348
    166 H74        -6.6330    2.1760   -5.3960 h1        1 MOL      0.112348
    167 H75        -7.6700    1.1340   -4.3920 h1        1 MOL      0.112348
    168 H76        -6.0190    1.2580   -2.6150 hn        1 MOL      0.217172
    169 Ca1         0.4910   -0.7260    1.6060 Ca        1 MOL      1.708680
    170 O24         2.6110   -0.4300   -0.2990 oh        1 MOL     -0.838832
    171 H77         2.5430    0.5180   -0.4310 ho        1 MOL      0.426080
    172 H78         3.5430   -0.5660   -0.0840 ho        1 MOL      0.426080
    173 O25         1.0870    1.8370    0.7410 oh        1 MOL     -0.838832
    174 H79         0.7620    2.6560    1.1010 ho        1 MOL      0.426080
    175 H80         1.6490    2.1060    0.0140 ho        1 MOL      0.426080
    176 O26         0.1930    0.9500    3.4640 oh        1 MOL     -0.838832
    177 H81         0.0150    0.6020    4.3340 ho        1 MOL      0.426080
    178 H82         0.3440    1.8890    3.6140 ho        1 MOL      0.426080
@<TRIPOS>BOND
     1    1    2 1   
     2    1    4 1   
     3    1    5 1   
     4    1    6 1   
     5    2    3 2   
     6    2    7 1   
     7    7    8 1   
     8    7   15 1   
     9    8    9 1   
    10    8   11 1   
    11    8   16 1   
    12    9   10 2   
    13    9   19 1   
    14   11   12 1   
    15   11   17 1   
    16   11   18 1   
    17   12   13 1   
    18   12   14 1   
    19   19   20 1   
    20   19   24 1   
    21   20   21 1   
    22   20   23 1   
    23   20   25 1   
    24   21   22 2   
    25   21   29 1   
    26   23   26 1   
    27   23   27 1   
    28   23   28 1   
    29   29   30 1   
    30   29   37 1   
    31   30   31 1   
    32   30   33 1   
    33   30   38 1   
    34   31   32 2   
    35   31   41 1   
    36   33   34 1   
    37   33   39 1   
    38   33   40 1   
    39   34   35 1   
    40   34   36 1   
    41   41   42 1   
    42   41   45 1   
    43   42   43 1   
    44   42   46 1   
    45   42   47 1   
    46   43   44 2   
    47   43   48 1   
    48   48   49 1   
    49   48   56 1   
    50   49   50 1   
    51   49   52 1   
    52   49   57 1   
    53   50   51 2   
    54   50   62 1   
    55   52   53 1   
    56   52   58 1   
    57   52   59 1   
    58   53   54 1   
    59   53   55 2   
    60   54   60 1   
    61   54   61 1   
    62   62   63 1   
    63   62   66 1   
    64   63   64 1   
    65   63   67 1   
    66   63   68 1   
    67   64   65 2   
    68   64   69 1   
    69   69   70 1   
    70   69   76 1   
    71   70   71 1   
    72   70   73 1   
    73   70   77 1   
    74   71   72 2   
    75   71   83 1   
    76   73   74 1   
    77   73   75 1   
    78   73   78 1   
    79   74   80 1   
    80   74   81 1   
    81   74   82 1   
    82   75   79 1   
    83   83   84 1   
    84   83   91 1   
    85   84   85 1   
    86   84   87 1   
    87   84   92 1   
    88   85   86 2   
    89   85  102 1   
    90   87   88 1   
    91   87   89 1   
    92   87   93 1   
    93   88   90 1   
    94   88   94 1   
    95   88   95 1   
    96   89   96 1   
    97   89   97 1   
    98   89   98 1   
    99   90   99 1   
   100   90  100 1   
   101   90  101 1   
   102  102  103 1   
   103  102  110 1   
   104  103  104 1   
   105  103  106 1   
   106  103  111 1   
   107  104  105 2   
   108  104  114 1   
   109  106  107 1   
   110  106  112 1   
   111  106  113 1   
   112  107  108 1   
   113  107  109 1   
   114  114  115 1   
   115  114  125 1   
   116  115  116 1   
   117  115  118 1   
   118  115  126 1   
   119  116  117 2   
   120  116  134 1   
   121  118  119 1   
   122  118  127 1   
   123  118  128 1   
   124  119  120 ar  
   125  119  121 ar  
   126  120  122 ar  
   127  120  129 1   
   128  121  123 ar  
   129  121  130 1   
   130  122  124 ar  
   131  122  131 1   
   132  123  124 ar  
   133  123  132 1   
   134  124  133 1   
   135  134  135 1   
   136  134  140 1   
   137  135  136 1   
   138  135  138 1   
   139  135  141 1   
   140  136  137 2   
   141  136  148 1   
   142  138  139 1   
   143  138  142 1   
   144  138  143 1   
   145  139  140 1   
   146  139  144 1   
   147  139  145 1   
   148  140  146 1   
   149  140  147 1   
   150  148  149 1   
   151  148  157 1   
   152  149  150 1   
   153  149  152 1   
   154  149  158 1   
   155  150  151 2   
   156  150  163 1   
   157  152  153 1   
   158  152  159 1   
   159  152  160 1   
   160  153  154 1   
   161  153  161 1   
   162  153  162 1   
   163  154  155 1   
   164  154  156 1   
   165  163  164 1   
   166  163  168 1   
   167  164  165 1   
   168  164  166 1   
   169  164  167 1   
   170  170  171 1   
   171  170  172 1   
   172  173  174 1   
   173  173  175 1   
   174  176  177 1   
   175  176  178 1   
@<TRIPOS>SUBSTRUCTURE
     1 MOL         1 TEMP              0 ****  ****    0 ROOT
