@<TRIPOS>MOLECULE
MOL
  192   187     1     0     0
SMALL
resp


@<TRIPOS>ATOM
      1 C1         -6.4860   -2.0140    5.6320 c3        1 MOL     -0.317073
      2 C2         -5.8180   -1.7040    4.3550 c         1 MOL      0.807327
      3 O1         -5.6020   -2.5540    3.4640 o         1 MOL     -0.642190
      4 H1         -5.8270   -2.6290    6.2450 hc        1 MOL      0.078761
      5 H2         -6.7110   -1.0870    6.1590 hc        1 MOL      0.078761
      6 H3         -7.4110   -2.5560    5.4370 hc        1 MOL      0.078761
      7 N1         -5.5550   -0.3990    4.0500 n         1 MOL     -0.510232
      8 C3         -5.2200    0.0890    2.7470 c3        1 MOL      0.299182
      9 C4         -3.7470   -0.1240    2.3580 c         1 MOL      0.027669
     10 O2         -3.2410    0.4640    1.3830 o         1 MOL     -0.210042
     11 C5         -5.4320    1.6270    2.6330 c3        1 MOL     -0.176616
     12 C6         -6.8620    2.1190    2.7970 c         1 MOL      0.630330
     13 O3         -7.3140    2.0250    4.0140 o         1 MOL     -0.688580
     14 O4         -7.5590    2.5320    1.8100 o         1 MOL     -0.688580
     15 H4         -5.7530    0.3140    4.7320 hn        1 MOL      0.229687
     16 H5         -5.8580   -0.3710    1.9960 h1        1 MOL      0.093819
     17 H6         -5.1160    1.9750    1.6400 hc        1 MOL      0.004886
     18 H7         -4.7980    2.1410    3.3500 hc        1 MOL      0.004886
     19 N2         -3.0430   -0.8650    3.2420 n         1 MOL     -0.037033
     20 C7         -1.5920   -0.9700    3.1640 c3        1 MOL     -0.054575
     21 C8         -0.9950   -2.2880    2.6980 c         1 MOL      0.626217
     22 O5         -1.3590   -3.3470    3.1120 o         1 MOL     -0.557158
     23 C9         -1.0100   -0.5370    4.4920 c3        1 MOL     -0.395593
     24 C10        -1.3270    0.8690    4.7440 c3        1 MOL      0.138713
     25 C11        -0.3110    1.4680    5.7610 c3        1 MOL     -0.157223
     26 C12        -0.6680    2.9040    6.0120 c3        1 MOL      0.098606
     27 N3          0.2980    3.5740    6.9130 n4        1 MOL     -0.277753
     28 H8         -3.5220   -1.4730    3.9010 hn        1 MOL      0.158950
     29 H9         -1.2450   -0.2250    2.4440 h1        1 MOL      0.122507
     30 H10         0.0650   -0.6530    4.4230 hc        1 MOL      0.129497
     31 H11        -1.4520   -1.0900    5.3150 hc        1 MOL      0.129497
     32 H12        -2.3530    0.9020    5.0940 hc        1 MOL     -0.019059
     33 H13        -1.2430    1.4290    3.8130 hc        1 MOL     -0.019059
     34 H14         0.6970    1.3920    5.3540 hc        1 MOL      0.070534
     35 H15        -0.3350    0.9570    6.7230 hc        1 MOL      0.070534
     36 H16        -1.6190    3.1710    6.4610 hx        1 MOL      0.068872
     37 H17        -0.7160    3.4650    5.0810 hx        1 MOL      0.068872
     38 H18         0.3700    3.0820    7.7860 hn        1 MOL      0.299191
     39 H19         1.2270    3.3910    6.5630 hn        1 MOL      0.299191
     40 H20         0.1380    4.5620    7.0300 hn        1 MOL      0.299191
     41 N4         -0.1150   -2.3960    1.7110 n         1 MOL     -0.397108
     42 C13         0.7660   -1.4340    0.9960 c3        1 MOL     -0.036516
     43 C14         1.5170   -0.4130    1.8880 c         1 MOL      0.664407
     44 O6          0.8820    0.6170    2.1700 o         1 MOL     -0.574156
     45 C15         0.0440   -0.7520   -0.2090 c3        1 MOL     -0.457947
     46 C16        -0.4520   -1.6590   -1.3480 c         1 MOL      0.871261
     47 O7         -0.0120   -2.8110   -1.4030 o         1 MOL     -0.768196
     48 O8         -1.1770   -1.2490   -2.2690 o         1 MOL     -0.768196
     49 H21        -0.0720   -3.3910    1.5040 hn        1 MOL      0.194723
     50 H22         1.5300   -2.0360    0.4950 h1        1 MOL      0.018743
     51 H23         0.7040   -0.0210   -0.6690 hc        1 MOL      0.170919
     52 H24        -0.8250   -0.2230    0.1860 hc        1 MOL      0.170919
     53 N5          2.7470   -0.7040    2.3170 n         1 MOL     -0.496116
     54 C17         3.5810   -1.8740    1.9950 c3        1 MOL     -0.070880
     55 C18         4.9080   -1.7400    2.8450 c         1 MOL      0.589974
     56 O9          5.0040   -0.8920    3.7570 o         1 MOL     -0.553360
     57 H25         3.2540    0.0390    2.7800 hn        1 MOL      0.298799
     58 H26         3.8740   -1.8420    0.9470 h1        1 MOL      0.112585
     59 H27         3.1730   -2.8500    2.2470 h1        1 MOL      0.112585
     60 N6          5.9250   -2.5820    2.6420 n         1 MOL     -0.453464
     61 C19         5.8490   -3.7710    1.8480 c3        1 MOL      0.005213
     62 C20         6.3080   -3.3760    0.4550 c         1 MOL      0.564499
     63 O10         7.1950   -2.5490    0.2420 o         1 MOL     -0.468629
     64 C21         6.8190   -4.8980    2.3450 c3        1 MOL     -0.120007
     65 C22         8.1440   -4.5310    2.9310 c         1 MOL      0.682796
     66 O11         9.1810   -4.8550    2.2850 o         1 MOL     -0.645490
     67 O12         8.2330   -3.8800    4.0090 o         1 MOL     -0.645490
     68 H28         6.7770   -2.4450    3.1820 hn        1 MOL      0.302004
     69 H29         4.8150   -4.1060    1.7250 h1        1 MOL      0.003142
     70 H30         6.9820   -5.5130    1.4640 hc        1 MOL      0.014655
     71 H31         6.3140   -5.4890    3.0990 hc        1 MOL      0.014655
     72 N7          5.6560   -3.8910   -0.6100 n         1 MOL     -0.150616
     73 C23         5.9100   -3.7520   -2.0300 c3        1 MOL     -0.698459
     74 C24         5.9900   -2.2940   -2.4730 c         1 MOL      0.758977
     75 O13         6.6770   -1.9760   -3.4560 o         1 MOL     -0.557676
     76 H32         4.8020   -4.4140   -0.4790 hn        1 MOL      0.146155
     77 H33         5.0030   -4.2000   -2.4480 h1        1 MOL      0.255302
     78 H34         6.8950   -4.1840   -2.2020 h1        1 MOL      0.255302
     79 N8          5.1010   -1.4440   -1.8650 n         1 MOL     -0.591448
     80 C25         4.8890   -0.0400   -2.4010 c3        1 MOL      0.062853
     81 C26         5.1470    1.0010   -1.2860 c         1 MOL      0.531202
     82 O14         4.6800    0.7570   -0.1660 o         1 MOL     -0.488106
     83 C27         3.4140    0.1640   -2.8980 c3        1 MOL      0.340524
     84 C28         3.2540   -0.5440   -4.2690 c3        1 MOL     -0.406521
     85 O15         3.2230    1.4940   -3.2520 oh        1 MOL     -0.562011
     86 H35         4.4680   -1.8380   -1.1890 hn        1 MOL      0.293497
     87 H36         5.5570    0.1130   -3.2480 h1        1 MOL      0.091854
     88 H37         2.7030   -0.2940   -2.2100 h1        1 MOL      0.054622
     89 H38         2.2990    1.5220   -3.4910 ho        1 MOL      0.389632
     90 H39         2.1930   -0.6600   -4.4750 hc        1 MOL      0.097944
     91 H40         3.6790    0.0130   -5.0980 hc        1 MOL      0.097944
     92 H41         3.6370   -1.5590   -4.2300 hc        1 MOL      0.097944
     93 N9          5.8350    2.1100   -1.5360 n         1 MOL     -0.443577
     94 C29         6.0460    3.2580   -0.6150 c3        1 MOL     -0.154671
     95 C30         4.7640    4.0390   -0.3190 c         1 MOL      0.393597
     96 O16         4.8300    5.0600    0.3830 o         1 MOL     -0.544548
     97 C31         7.2470    4.1370   -1.0930 c3        1 MOL      0.097708
     98 C32         7.7370    5.2720   -0.1900 c3        1 MOL      0.154573
     99 C33         6.9610    4.6290   -2.5240 c3        1 MOL     -0.245364
    100 C34         9.1710    5.7330   -0.4020 c3        1 MOL     -0.214755
    101 H42         6.1320    2.3360   -2.4760 hn        1 MOL      0.291109
    102 H43         6.3500    2.8680    0.3640 h1        1 MOL      0.155270
    103 H44         8.1670    3.5670   -1.2140 hc        1 MOL      0.035526
    104 H45         7.7650    4.8440    0.8160 hc        1 MOL     -0.007818
    105 H46         7.0440    6.1060   -0.0820 hc        1 MOL     -0.007818
    106 H47         7.7150    5.3530   -2.8370 hc        1 MOL      0.062399
    107 H48         7.0300    3.8090   -3.2460 hc        1 MOL      0.062399
    108 H49         5.9910    5.1050   -2.6530 hc        1 MOL      0.062399
    109 H50         9.3860    6.4570    0.3860 hc        1 MOL      0.045853
    110 H51         9.7850    4.8450   -0.2910 hc        1 MOL      0.045853
    111 H52         9.3210    6.1700   -1.3900 hc        1 MOL      0.045853
    112 N10         3.5920    3.6830   -0.8860 n         1 MOL      0.040711
    113 C35         2.3430    4.5040   -0.6030 c3        1 MOL     -0.198558
    114 C36         1.1320    3.5430   -0.6270 c         1 MOL      0.404885
    115 O17         1.1490    2.4970   -1.2790 o         1 MOL     -0.437552
    116 C37         1.9900    5.6220   -1.6350 c3        1 MOL      0.535468
    117 C38         1.8540    5.1170   -3.0860 c3        1 MOL     -0.208203
    118 O18         2.8430    6.6860   -1.5630 oh        1 MOL     -0.645547
    119 H53         3.5380    2.8190   -1.4190 hn        1 MOL      0.033569
    120 H54         2.3390    5.0460    0.3420 h1        1 MOL      0.067450
    121 H55         0.9990    6.0490   -1.4330 h1        1 MOL     -0.068518
    122 H56         2.9690    6.8480   -0.6190 ho        1 MOL      0.379047
    123 H57         0.8130    4.8300   -3.2270 hc        1 MOL      0.053003
    124 H58         1.8440    5.9930   -3.7350 hc        1 MOL      0.053003
    125 H59         2.6680    4.4340   -3.3430 hc        1 MOL      0.053003
    126 N11         0.0790    3.8910    0.1280 n         1 MOL     -0.341778
    127 C39        -1.1050    3.1350    0.2310 c3        1 MOL      0.012329
    128 C40        -1.7370    2.7300   -1.0930 c         1 MOL      0.358717
    129 O19        -1.4130    3.2790   -2.1570 o         1 MOL     -0.514863
    130 C41        -2.2220    3.8640    1.1110 c3        1 MOL      0.339703
    131 C42        -2.7390    5.1890    0.5260 c3        1 MOL     -0.256182
    132 O20        -1.6880    4.3030    2.4020 oh        1 MOL     -0.648128
    133 H60         0.0340    4.8270    0.5240 hn        1 MOL      0.263981
    134 H61        -0.8550    2.1780    0.6920 h1        1 MOL      0.121144
    135 H62        -3.0420    3.1810    1.3320 h1        1 MOL      0.022652
    136 H63        -2.4210    4.2290    3.0150 ho        1 MOL      0.388770
    137 H64        -1.9620    5.8010    0.0900 hc        1 MOL      0.064759
    138 H65        -3.3610    5.1080   -0.3690 hc        1 MOL      0.064759
    139 H66        -3.3470    5.6810    1.2830 hc        1 MOL      0.064759
    140 N12        -2.7160    1.8380   -1.0580 n         1 MOL     -0.161607
    141 C43        -3.6120    1.4190   -2.2000 c3        1 MOL      0.105319
    142 C44        -4.1760   -0.0280   -2.2280 c         1 MOL      0.757540
    143 O21        -4.4010   -0.4830   -3.3410 o         1 MOL     -0.693495
    144 C45        -4.7880    2.4450   -2.0890 c3        1 MOL     -0.264923
    145 C46        -5.6550    2.5260   -3.4220 c3        1 MOL      0.152891
    146 C47        -6.8130    3.5710   -3.4280 c3        1 MOL     -0.049470
    147 C48        -7.6470    3.5210   -4.7220 c3        1 MOL      0.087203
    148 N13        -8.8300    4.4100   -4.5070 n4        1 MOL     -0.261054
    149 H67        -2.7370    1.2980   -0.2100 hn        1 MOL     -0.033611
    150 H68        -3.1100    1.5770   -3.1530 h1        1 MOL      0.078172
    151 H69        -4.3370    3.4480   -2.0440 hc        1 MOL      0.069900
    152 H70        -5.3980    2.3780   -1.1890 hc        1 MOL      0.069900
    153 H71        -6.0580    1.5110   -3.4890 hc        1 MOL     -0.026800
    154 H72        -5.0180    2.6730   -4.2990 hc        1 MOL     -0.026800
    155 H73        -6.2940    4.5330   -3.4540 hc        1 MOL      0.036955
    156 H74        -7.4640    3.5400   -2.5470 hc        1 MOL      0.036955
    157 H75        -7.9270    2.5160   -5.0250 hx        1 MOL      0.058660
    158 H76        -7.1010    3.9860   -5.5540 hx        1 MOL      0.058660
    159 H77        -9.4490    4.0270   -3.8070 hn        1 MOL      0.294512
    160 H78        -8.6000    5.3440   -4.1690 hn        1 MOL      0.294512
    161 H79        -9.3890    4.4960   -5.3390 hn        1 MOL      0.294512
    162 N14        -4.2760   -0.7920   -1.1460 n         1 MOL     -0.255805
    163 C49        -4.8460   -2.0990   -1.1700 c3        1 MOL     -0.191187
    164 C50        -6.3400   -2.0070   -1.0870 c         1 MOL      0.341703
    165 O22        -6.8390   -1.3760   -0.1450 o         1 MOL     -0.467628
    166 C51        -4.1470   -2.8270   -0.0670 c3        1 MOL      0.320809
    167 C52        -4.2840   -4.3770   -0.1070 c3        1 MOL     -0.125149
    168 C53        -4.0410   -4.8540   -1.5040 c         1 MOL      0.221869
    169 O23        -4.9690   -5.4680   -2.0320 o         1 MOL     -0.590274
    170 O24        -2.9530   -4.5780   -2.1140 o         1 MOL     -0.590274
    171 H80        -4.1380   -0.2980   -0.2720 hn        1 MOL      0.124117
    172 H81        -4.6410   -2.6440   -2.0820 h1        1 MOL      0.196485
    173 H82        -4.5130   -2.4810    0.9020 hc        1 MOL     -0.079295
    174 H83        -3.0850   -2.5880   -0.0530 hc        1 MOL     -0.079295
    175 H84        -5.2600   -4.6700    0.2620 hc        1 MOL      0.082939
    176 H85        -3.5800   -4.8460    0.5800 hc        1 MOL      0.082939
    177 N15        -7.0190   -2.8190   -1.8910 n         1 MOL     -0.153211
    178 C54        -8.4190   -3.0250   -1.8630 c3        1 MOL     -0.168522
    179 H86        -8.8830   -2.4740   -2.6800 h1        1 MOL      0.081560
    180 H87        -8.6320   -4.0880   -1.9740 h1        1 MOL      0.081560
    181 H88        -8.8200   -2.6710   -0.9130 h1        1 MOL      0.081560
    182 H89        -6.4790   -3.2640   -2.6300 hn        1 MOL      0.261973
    183 Ca1        -0.5160   -5.1350   -2.4800 Ca        1 MOL      1.646302
    184 O25        -0.3010   -6.2430   -4.9120 oh        1 MOL     -0.900540
    185 H90         0.2400   -6.4120   -5.6770 ho        1 MOL      0.440871
    186 H91        -1.2000   -6.3010   -5.2250 ho        1 MOL      0.440871
    187 O26        -1.6310   -3.2580   -4.2210 oh        1 MOL     -0.900540
    188 H92        -2.4050   -3.1320   -4.7630 ho        1 MOL      0.440871
    189 H93        -1.5900   -2.4640   -3.6870 ho        1 MOL      0.440871
    190 O27         1.3690   -4.0530   -4.0460 oh        1 MOL     -0.900540
    191 H94         2.0930   -4.4200   -4.5550 ho        1 MOL      0.440871
    192 H95         0.9100   -3.4760   -4.6620 ho        1 MOL      0.440871
@<TRIPOS>BOND
     1    1    2 1   
     2    1    4 1   
     3    1    5 1   
     4    1    6 1   
     5    2    3 2   
     6    2    7 1   
     7    7    8 1   
     8    7   15 1   
     9    8    9 1   
    10    8   11 1   
    11    8   16 1   
    12    9   10 2   
    13    9   19 1   
    14   11   12 1   
    15   11   17 1   
    16   11   18 1   
    17   12   13 1   
    18   12   14 1   
    19   19   20 1   
    20   19   28 1   
    21   20   21 1   
    22   20   23 1   
    23   20   29 1   
    24   21   22 2   
    25   21   41 1   
    26   23   24 1   
    27   23   30 1   
    28   23   31 1   
    29   24   25 1   
    30   24   32 1   
    31   24   33 1   
    32   25   26 1   
    33   25   34 1   
    34   25   35 1   
    35   26   27 1   
    36   26   36 1   
    37   26   37 1   
    38   27   38 1   
    39   27   39 1   
    40   27   40 1   
    41   41   42 1   
    42   41   49 1   
    43   42   43 1   
    44   42   45 1   
    45   42   50 1   
    46   43   44 2   
    47   43   53 1   
    48   45   46 1   
    49   45   51 1   
    50   45   52 1   
    51   46   47 1   
    52   46   48 1   
    53   53   54 1   
    54   53   57 1   
    55   54   55 1   
    56   54   58 1   
    57   54   59 1   
    58   55   56 2   
    59   55   60 1   
    60   60   61 1   
    61   60   68 1   
    62   61   62 1   
    63   61   64 1   
    64   61   69 1   
    65   62   63 2   
    66   62   72 1   
    67   64   65 1   
    68   64   70 1   
    69   64   71 1   
    70   65   66 1   
    71   65   67 1   
    72   72   73 1   
    73   72   76 1   
    74   73   74 1   
    75   73   77 1   
    76   73   78 1   
    77   74   75 2   
    78   74   79 1   
    79   79   80 1   
    80   79   86 1   
    81   80   81 1   
    82   80   83 1   
    83   80   87 1   
    84   81   82 2   
    85   81   93 1   
    86   83   84 1   
    87   83   85 1   
    88   83   88 1   
    89   84   90 1   
    90   84   91 1   
    91   84   92 1   
    92   85   89 1   
    93   93   94 1   
    94   93  101 1   
    95   94   95 1   
    96   94   97 1   
    97   94  102 1   
    98   95   96 2   
    99   95  112 1   
   100   97   98 1   
   101   97   99 1   
   102   97  103 1   
   103   98  100 1   
   104   98  104 1   
   105   98  105 1   
   106   99  106 1   
   107   99  107 1   
   108   99  108 1   
   109  100  109 1   
   110  100  110 1   
   111  100  111 1   
   112  112  113 1   
   113  112  119 1   
   114  113  114 1   
   115  113  116 1   
   116  113  120 1   
   117  114  115 2   
   118  114  126 1   
   119  116  117 1   
   120  116  118 1   
   121  116  121 1   
   122  117  123 1   
   123  117  124 1   
   124  117  125 1   
   125  118  122 1   
   126  126  127 1   
   127  126  133 1   
   128  127  128 1   
   129  127  130 1   
   130  127  134 1   
   131  128  129 2   
   132  128  140 1   
   133  130  131 1   
   134  130  132 1   
   135  130  135 1   
   136  131  137 1   
   137  131  138 1   
   138  131  139 1   
   139  132  136 1   
   140  140  141 1   
   141  140  149 1   
   142  141  142 1   
   143  141  144 1   
   144  141  150 1   
   145  142  143 2   
   146  142  162 1   
   147  144  145 1   
   148  144  151 1   
   149  144  152 1   
   150  145  146 1   
   151  145  153 1   
   152  145  154 1   
   153  146  147 1   
   154  146  155 1   
   155  146  156 1   
   156  147  148 1   
   157  147  157 1   
   158  147  158 1   
   159  148  159 1   
   160  148  160 1   
   161  148  161 1   
   162  162  163 1   
   163  162  171 1   
   164  163  164 1   
   165  163  166 1   
   166  163  172 1   
   167  164  165 2   
   168  164  177 1   
   169  166  167 1   
   170  166  173 1   
   171  166  174 1   
   172  167  168 1   
   173  167  175 1   
   174  167  176 1   
   175  168  169 1   
   176  168  170 1   
   177  177  178 1   
   178  177  182 1   
   179  178  179 1   
   180  178  180 1   
   181  178  181 1   
   182  184  185 1   
   183  184  186 1   
   184  187  188 1   
   185  187  189 1   
   186  190  191 1   
   187  190  192 1   
@<TRIPOS>SUBSTRUCTURE
     1 MOL         1 TEMP              0 ****  ****    0 ROOT
