@<TRIPOS>MOLECULE
MOL
  179   176     1     0     0
SMALL
resp


@<TRIPOS>ATOM
      1 C1          0.7050   -7.1130    3.6120 c3        1 MOL     -0.377668
      2 C2          0.6890   -5.8680    2.7360 c         1 MOL      0.746158
      3 O1         -0.3040   -5.5050    2.0810 o         1 MOL     -0.639720
      4 H1          0.5600   -6.8260    4.6530 hc        1 MOL      0.105309
      5 H2         -0.0970   -7.7840    3.3060 hc        1 MOL      0.105309
      6 H3          1.6640   -7.6200    3.5070 hc        1 MOL      0.105309
      7 N1          1.8050   -5.1740    2.6510 n         1 MOL     -0.615541
      8 C3          1.9990   -4.0720    1.7530 c3        1 MOL     -0.051565
      9 C4          2.1180   -4.6350    0.3040 c         1 MOL      0.715295
     10 O2          3.0870   -5.3970    0.0690 o         1 MOL     -0.523608
     11 C5          3.0600   -3.0840    2.2400 c3        1 MOL      0.088268
     12 C6          3.1480   -1.8560    1.2400 c         1 MOL      0.544348
     13 O3          3.8550   -0.9000    1.5350 o         1 MOL     -0.721636
     14 O4          2.5590   -1.8180    0.1640 o         1 MOL     -0.721636
     15 H4          2.5970   -5.4940    3.1860 hn        1 MOL      0.326040
     16 H5          1.0770   -3.4980    1.8250 h1        1 MOL      0.103887
     17 H6          4.0170   -3.6000    2.2320 hc        1 MOL      0.015406
     18 H7          2.9400   -2.7350    3.2640 hc        1 MOL      0.015406
     19 N2          1.1720   -4.3340   -0.6770 n         1 MOL     -0.436646
     20 C7          1.1830   -4.6980   -2.1780 c3        1 MOL      0.014431
     21 C8          2.3750   -4.3260   -3.0480 c         1 MOL      0.477005
     22 O5          2.4700   -4.6400   -4.2340 o         1 MOL     -0.556741
     23 C9         -0.0980   -4.1060   -2.8660 c3        1 MOL     -0.227501
     24 C10         0.0650   -2.5650   -3.0250 c3        1 MOL      0.160095
     25 C11        -1.1520   -1.8500   -3.3950 c3        1 MOL     -0.051230
     26 C12        -0.9170   -0.3890   -3.5840 c3        1 MOL      0.102357
     27 N3         -2.2210    0.1900   -4.0460 n4        1 MOL     -0.219182
     28 H8          0.4290   -3.7200   -0.3910 hn        1 MOL      0.284726
     29 H9          1.1390   -5.7830   -2.2670 h1        1 MOL      0.117069
     30 H10        -1.0120   -4.3140   -2.3070 hc        1 MOL      0.087729
     31 H11        -0.2570   -4.5870   -3.8270 hc        1 MOL      0.087729
     32 H12         0.8220   -2.3530   -3.7790 hc        1 MOL      0.026729
     33 H13         0.3440   -2.1730   -2.0480 hc        1 MOL      0.026729
     34 H14        -1.9350   -1.9330   -2.6470 hc        1 MOL      0.004631
     35 H15        -1.4070   -2.3030   -4.3600 hc        1 MOL      0.004631
     36 H16        -0.1460   -0.1990   -4.3260 hx        1 MOL      0.043384
     37 H17        -0.6620   -0.0750   -2.5660 hx        1 MOL      0.043384
     38 H18        -2.5570   -0.2710   -4.8750 hn        1 MOL      0.268293
     39 H19        -2.9910   -0.0510   -3.4500 hn        1 MOL      0.268293
     40 H20        -2.1930    1.1810   -4.2290 hn        1 MOL      0.268293
     41 N4          3.2850   -3.5960   -2.4220 n         1 MOL      0.005477
     42 C13         4.5380   -3.1310   -3.1100 c3        1 MOL      0.082706
     43 C14         5.7240   -3.1340   -2.1500 c         1 MOL      0.389979
     44 O6          6.8490   -3.0820   -2.5680 o         1 MOL     -0.517394
     45 C15         4.3470   -1.7670   -3.7270 c3        1 MOL     -0.323959
     46 C16         3.7760   -0.6300   -2.7600 c         1 MOL      0.750765
     47 O7          4.5590   -0.0300   -1.9620 o         1 MOL     -0.722400
     48 O8          2.5540   -0.2890   -2.8190 o         1 MOL     -0.722400
     49 H21         3.1060   -3.4230   -1.4440 hn        1 MOL     -0.381311
     50 H22         4.7650   -3.8380   -3.8960 h1        1 MOL      0.112855
     51 H23         3.7110   -1.8630   -4.6160 hc        1 MOL      0.107648
     52 H24         5.3060   -1.4920   -4.1680 hc        1 MOL      0.107648
     53 N5          5.5130   -3.0970   -0.8180 n         1 MOL     -0.042589
     54 C17         6.6200   -3.0920    0.1350 c3        1 MOL     -0.366027
     55 C18         7.1150   -1.6620    0.4790 c         1 MOL      0.602521
     56 O9          8.0130   -1.5360    1.2760 o         1 MOL     -0.591034
     57 H25         4.5800   -3.1050   -0.4320 hn        1 MOL      0.233877
     58 H26         7.4390   -3.6750   -0.2890 h1        1 MOL      0.155076
     59 H27         6.3140   -3.5180    1.0940 h1        1 MOL      0.155076
     60 N6          6.6330   -0.5860   -0.1060 n         1 MOL     -0.185342
     61 C19         7.2460    0.7420   -0.0230 c3        1 MOL     -0.018031
     62 C20         6.2810    1.8330    0.3470 c         1 MOL      0.340065
     63 O10         5.0510    1.6850    0.4100 o         1 MOL     -0.370284
     64 C21         8.0210    1.0090   -1.3300 c3        1 MOL     -0.171154
     65 C22         7.5380    2.0700   -2.2500 c         1 MOL      0.597564
     66 N7          6.2540    2.0740   -2.6110 n         1 MOL     -0.770013
     67 O11         8.3210    2.9420   -2.6290 o         1 MOL     -0.580627
     68 H28         5.8360   -0.6990   -0.7100 hn        1 MOL      0.173762
     69 H29         8.0260    0.7430    0.7390 h1        1 MOL      0.101338
     70 H30         8.2390    0.1180   -1.9140 hc        1 MOL      0.091555
     71 H31         9.0290    1.3320   -1.0910 hc        1 MOL      0.091555
     72 H32         5.6820    1.2570   -2.4390 hn        1 MOL      0.359807
     73 H33         5.8570    2.9370   -2.9390 hn        1 MOL      0.359807
     74 N8          6.7410    3.0220    0.6700 n         1 MOL     -0.306735
     75 C23         5.8760    4.1950    0.9500 c3        1 MOL     -0.131943
     76 C24         4.6910    4.0210    2.0030 c         1 MOL      0.555889
     77 O12         4.8040    3.3180    2.9860 o         1 MOL     -0.468829
     78 H34         7.7450    3.1260    0.7500 hn        1 MOL      0.285997
     79 H35         5.4700    4.4540   -0.0300 h1        1 MOL      0.092850
     80 H36         6.5160    5.0260    1.2500 h1        1 MOL      0.092850
     81 N9          3.5910    4.7200    1.6990 n         1 MOL     -0.492193
     82 C25         2.3440    4.5080    2.4860 c3        1 MOL      0.027161
     83 C26         1.7790    3.1240    2.3620 c         1 MOL      0.667495
     84 O13         2.0820    2.4030    1.4060 o         1 MOL     -0.667195
     85 C27         1.3540    5.5290    1.9730 c3        1 MOL     -0.283818
     86 C28         1.1990    5.7080    0.4230 ca        1 MOL      0.104134
     87 C29         1.6960    6.9050   -0.1240 ca        1 MOL     -0.136092
     88 C30         0.4630    4.8320   -0.3730 ca        1 MOL     -0.136092
     89 C31         1.4720    7.1590   -1.5210 ca        1 MOL     -0.236579
     90 C32         0.2650    4.9960   -1.7630 ca        1 MOL     -0.236579
     91 C33         0.8300    6.1680   -2.3520 ca        1 MOL      0.273372
     92 O14         0.6270    6.4680   -3.6730 oh        1 MOL     -0.457826
     93 H37         3.5680    5.0880    0.7630 hn        1 MOL      0.259888
     94 H38         2.5910    4.7610    3.5210 h1        1 MOL      0.118750
     95 H39         1.6960    6.4660    2.4030 hc        1 MOL      0.106391
     96 H40         0.3780    5.3850    2.4520 hc        1 MOL      0.106391
     97 H41         2.2930    7.5590    0.4860 ha        1 MOL      0.140175
     98 H42        -0.0540    4.0850    0.2010 ha        1 MOL      0.140175
     99 H43         1.9020    8.0650   -1.9210 ha        1 MOL      0.169683
    100 H44        -0.3450    4.3650   -2.3980 ha        1 MOL      0.169683
    101 H45         0.2180    5.7610   -4.1810 ho        1 MOL      0.370804
    102 N10         0.9050    2.7100    3.2980 n         1 MOL     -0.544049
    103 C34         0.5020    1.3760    3.6320 c3        1 MOL     -0.008770
    104 C35        -0.1310    0.5800    2.4130 c         1 MOL      0.662928
    105 O15         0.4940    0.3140    1.3370 o         1 MOL     -0.509129
    106 C36         1.5690    0.5930    4.4010 c3        1 MOL     -0.021107
    107 C37         1.1180   -0.8340    4.7780 c3        1 MOL     -0.118487
    108 C38         2.0920    1.5000    5.5290 c3        1 MOL     -0.047685
    109 C39         2.0340   -1.5710    5.7300 c3        1 MOL      0.043255
    110 H46         0.6760    3.3990    4.0010 hn        1 MOL      0.324505
    111 H47        -0.2560    1.3840    4.4140 h1        1 MOL      0.072688
    112 H48         2.4500    0.4510    3.7710 hc        1 MOL      0.122060
    113 H49         0.9460   -1.4560    3.8970 hc        1 MOL      0.014887
    114 H50         0.2390   -0.7560    5.4250 hc        1 MOL      0.014887
    115 H51         1.2970    1.9720    6.1150 hc        1 MOL      0.019499
    116 H52         2.8290    1.0840    6.2290 hc        1 MOL      0.019499
    117 H53         2.5340    2.3630    5.0360 hc        1 MOL      0.019499
    118 H54         1.8880   -2.6470    5.6610 hc        1 MOL      0.011326
    119 H55         3.0430   -1.5960    5.3300 hc        1 MOL      0.011326
    120 H56         1.9790   -1.3530    6.7930 hc        1 MOL      0.011326
    121 N11        -1.3710    0.1920    2.5600 n         1 MOL     -0.568388
    122 C40        -1.8620   -1.0160    1.8830 c3        1 MOL     -0.037825
    123 C41        -2.8240   -0.7920    0.7630 c         1 MOL      0.702798
    124 O16        -3.1300   -1.6330   -0.1150 o         1 MOL     -0.571286
    125 C42        -2.4290   -1.9350    2.9900 c3        1 MOL      0.134423
    126 O17        -3.4860   -1.1980    3.6590 oh        1 MOL     -0.591464
    127 H57        -1.9240    0.4840    3.3580 hn        1 MOL      0.288004
    128 H58        -1.0260   -1.4490    1.3370 h1        1 MOL      0.046192
    129 H59        -1.6530   -2.1360    3.7270 h1        1 MOL      0.081811
    130 H60        -2.8790   -2.8200    2.5310 h1        1 MOL      0.081811
    131 H61        -3.5540   -1.2990    4.6170 ho        1 MOL      0.411183
    132 N12        -3.6310    0.2630    0.8590 n         1 MOL     -0.460731
    133 C43        -4.9810    0.3580    0.1990 c3        1 MOL     -0.064033
    134 C44        -4.9590    0.2530   -1.3020 c         1 MOL      0.782803
    135 O18        -3.9840    0.7040   -1.9170 o         1 MOL     -0.674740
    136 C45        -5.6930    1.6610    0.6850 c3        1 MOL     -0.149383
    137 H62        -3.3440    0.9380    1.5590 hn        1 MOL      0.281868
    138 H63        -5.4480   -0.5320    0.6050 h1        1 MOL      0.138334
    139 H64        -5.1900    2.5990    0.4930 hc        1 MOL      0.066243
    140 H65        -6.6750    1.7230    0.1970 hc        1 MOL      0.066243
    141 H66        -5.7400    1.6170    1.7710 hc        1 MOL      0.066243
    142 N13        -5.9860   -0.1400   -2.0550 n         1 MOL     -0.719587
    143 C46        -7.3060   -0.6590   -1.6230 c3        1 MOL      0.260292
    144 C47        -8.3610    0.4670   -1.6090 c         1 MOL      0.722455
    145 O19        -8.2630    1.4230   -2.4360 o         1 MOL     -0.600705
    146 C48        -7.6460   -1.8790   -2.5400 c3        1 MOL     -0.265200
    147 H67        -5.8630    0.0780   -3.0350 hn        1 MOL      0.343990
    148 H68        -7.1550   -1.0810   -0.6330 h1        1 MOL      0.043201
    149 H69        -7.6390   -1.6420   -3.6010 hc        1 MOL      0.087556
    150 H70        -7.0650   -2.7640   -2.2710 hc        1 MOL      0.087556
    151 H71        -8.6310   -2.1880   -2.2170 hc        1 MOL      0.087556
    152 N14        -9.4710    0.4740   -0.8610 n         1 MOL     -0.588338
    153 C49        -9.9800   -0.6180   -0.0920 c3        1 MOL     -0.150193
    154 C50       -10.1470   -0.4000    1.4160 c         1 MOL      0.518975
    155 O20        -9.7030   -1.3000    2.1320 o         1 MOL     -0.551218
    156 C51       -11.2510   -1.2340   -0.7520 c3        1 MOL     -0.007124
    157 C52       -12.5670   -0.3420   -0.5400 c3        1 MOL      0.027982
    158 C53       -12.4500    0.9930   -1.2420 c         1 MOL      0.641293
    159 O21       -11.8560    1.9550   -0.6960 o         1 MOL     -0.665664
    160 O22       -12.9600    1.1560   -2.3730 o         1 MOL     -0.665664
    161 H72       -10.1360    1.2210   -1.0410 hn        1 MOL      0.333324
    162 H73        -9.2260   -1.4110   -0.1210 h1        1 MOL      0.051498
    163 H74       -11.5920   -2.0980   -0.1770 hc        1 MOL      0.025850
    164 H75       -11.1950   -1.4840   -1.8070 hc        1 MOL      0.025850
    165 H76       -12.8480   -0.2620    0.5110 hc        1 MOL     -0.023297
    166 H77       -13.3960   -0.8740   -1.0040 hc        1 MOL     -0.023297
    167 N15       -10.6150    0.8060    1.9070 n         1 MOL     -0.213497
    168 C54       -10.6460    1.1680    3.3760 c3        1 MOL     -0.205310
    169 H78       -10.7940    2.2430    3.4830 h1        1 MOL      0.099086
    170 H79       -11.4650    0.6400    3.8640 h1        1 MOL      0.099086
    171 H80        -9.7020    0.8840    3.8410 h1        1 MOL      0.099086
    172 H81       -11.0110    1.3160    1.1350 hn        1 MOL      0.162350
    173 Ca1         2.5640    0.6740   -0.3770 Ca        1 MOL      1.764647
    174 O23         0.2140    1.7480   -1.3430 oh        1 MOL     -0.810526
    175 H82         0.2640    2.0860   -2.2350 ho        1 MOL      0.373015
    176 H83        -0.6760    1.9510   -1.0500 ho        1 MOL      0.373015
    177 O24         2.8550    3.0100   -1.6940 oh        1 MOL     -0.810526
    178 H84         2.3550    3.7830   -1.4120 ho        1 MOL      0.373015
    179 H85         3.6310    3.3710   -2.1290 ho        1 MOL      0.373015
@<TRIPOS>BOND
     1    1    2 1   
     2    1    4 1   
     3    1    5 1   
     4    1    6 1   
     5    2    3 2   
     6    2    7 1   
     7    7    8 1   
     8    7   15 1   
     9    8    9 1   
    10    8   11 1   
    11    8   16 1   
    12    9   10 2   
    13    9   19 1   
    14   11   12 1   
    15   11   17 1   
    16   11   18 1   
    17   12   13 1   
    18   12   14 1   
    19   19   20 1   
    20   19   28 1   
    21   20   21 1   
    22   20   23 1   
    23   20   29 1   
    24   21   22 2   
    25   21   41 1   
    26   23   24 1   
    27   23   30 1   
    28   23   31 1   
    29   24   25 1   
    30   24   32 1   
    31   24   33 1   
    32   25   26 1   
    33   25   34 1   
    34   25   35 1   
    35   26   27 1   
    36   26   36 1   
    37   26   37 1   
    38   27   38 1   
    39   27   39 1   
    40   27   40 1   
    41   41   42 1   
    42   41   49 1   
    43   42   43 1   
    44   42   45 1   
    45   42   50 1   
    46   43   44 2   
    47   43   53 1   
    48   45   46 1   
    49   45   51 1   
    50   45   52 1   
    51   46   47 1   
    52   46   48 1   
    53   53   54 1   
    54   53   57 1   
    55   54   55 1   
    56   54   58 1   
    57   54   59 1   
    58   55   56 2   
    59   55   60 1   
    60   60   61 1   
    61   60   68 1   
    62   61   62 1   
    63   61   64 1   
    64   61   69 1   
    65   62   63 2   
    66   62   74 1   
    67   64   65 1   
    68   64   70 1   
    69   64   71 1   
    70   65   66 1   
    71   65   67 2   
    72   66   72 1   
    73   66   73 1   
    74   74   75 1   
    75   74   78 1   
    76   75   76 1   
    77   75   79 1   
    78   75   80 1   
    79   76   77 2   
    80   76   81 1   
    81   81   82 1   
    82   81   93 1   
    83   82   83 1   
    84   82   85 1   
    85   82   94 1   
    86   83   84 2   
    87   83  102 1   
    88   85   86 1   
    89   85   95 1   
    90   85   96 1   
    91   86   87 ar  
    92   86   88 ar  
    93   87   89 ar  
    94   87   97 1   
    95   88   90 ar  
    96   88   98 1   
    97   89   91 ar  
    98   89   99 1   
    99   90   91 ar  
   100   90  100 1   
   101   91   92 1   
   102   92  101 1   
   103  102  103 1   
   104  102  110 1   
   105  103  104 1   
   106  103  106 1   
   107  103  111 1   
   108  104  105 2   
   109  104  121 1   
   110  106  107 1   
   111  106  108 1   
   112  106  112 1   
   113  107  109 1   
   114  107  113 1   
   115  107  114 1   
   116  108  115 1   
   117  108  116 1   
   118  108  117 1   
   119  109  118 1   
   120  109  119 1   
   121  109  120 1   
   122  121  122 1   
   123  121  127 1   
   124  122  123 1   
   125  122  125 1   
   126  122  128 1   
   127  123  124 2   
   128  123  132 1   
   129  125  126 1   
   130  125  129 1   
   131  125  130 1   
   132  126  131 1   
   133  132  133 1   
   134  132  137 1   
   135  133  134 1   
   136  133  136 1   
   137  133  138 1   
   138  134  135 2   
   139  134  142 1   
   140  136  139 1   
   141  136  140 1   
   142  136  141 1   
   143  142  143 1   
   144  142  147 1   
   145  143  144 1   
   146  143  146 1   
   147  143  148 1   
   148  144  145 2   
   149  144  152 1   
   150  146  149 1   
   151  146  150 1   
   152  146  151 1   
   153  152  153 1   
   154  152  161 1   
   155  153  154 1   
   156  153  156 1   
   157  153  162 1   
   158  154  155 2   
   159  154  167 1   
   160  156  157 1   
   161  156  163 1   
   162  156  164 1   
   163  157  158 1   
   164  157  165 1   
   165  157  166 1   
   166  158  159 1   
   167  158  160 1   
   168  167  168 1   
   169  167  172 1   
   170  168  169 1   
   171  168  170 1   
   172  168  171 1   
   173  174  175 1   
   174  174  176 1   
   175  177  178 1   
   176  177  179 1   
@<TRIPOS>SUBSTRUCTURE
     1 MOL         1 TEMP              0 ****  ****    0 ROOT
