@<TRIPOS>MOLECULE
MOL
  182   178     1     0     0
SMALL
resp


@<TRIPOS>ATOM
      1 C1          1.6880   -3.3900    6.7450 c3        1 MOL     -0.459958
      2 C2          1.5490   -3.1780    5.1880 c         1 MOL      0.786854
      3 O1          0.4040   -3.1080    4.6460 o         1 MOL     -0.656986
      4 H1          0.7260   -3.6950    7.1570 hc        1 MOL      0.130415
      5 H2          2.4290   -4.1640    6.9430 hc        1 MOL      0.130415
      6 H3          2.0030   -2.4560    7.2120 hc        1 MOL      0.130415
      7 N1          2.6320   -3.0160    4.4630 n         1 MOL     -0.634310
      8 C3          2.7180   -2.9390    3.0050 c3        1 MOL      0.035498
      9 C4          2.7350   -4.3250    2.3690 c         1 MOL      0.594356
     10 O2          3.4490   -5.2210    2.7930 o         1 MOL     -0.520299
     11 C5          3.9250   -2.1410    2.5670 c3        1 MOL      0.014936
     12 C6          3.6360   -1.3430    1.3330 c         1 MOL      0.234805
     13 O3          4.1420   -0.1990    1.1790 o         1 MOL     -0.536734
     14 O4          3.1110   -1.8930    0.3050 o         1 MOL     -0.536734
     15 H4          3.4370   -2.6950    4.9780 hn        1 MOL      0.318686
     16 H5          1.7900   -2.4730    2.6630 h1        1 MOL      0.051232
     17 H6          4.7560   -2.8320    2.4190 hc        1 MOL      0.063935
     18 H7          4.1840   -1.4350    3.3560 hc        1 MOL      0.063935
     19 N2          1.9830   -4.4210    1.2230 n         1 MOL     -0.372751
     20 C7          1.9770   -5.5490    0.3350 c3        1 MOL     -0.089523
     21 C8          3.1320   -5.4960   -0.7290 c         1 MOL      0.443584
     22 O5          3.4860   -6.5960   -1.2970 o         1 MOL     -0.553549
     23 C9          0.6370   -5.6860   -0.4890 c3        1 MOL      0.001102
     24 C10        -0.6010   -5.8650    0.3240 c3        1 MOL     -0.079042
     25 C11        -2.0070   -5.9000   -0.4080 c3        1 MOL     -0.118067
     26 C12        -2.2800   -4.6720   -1.2360 c3        1 MOL      0.104282
     27 N3         -3.5500   -4.7430   -1.9710 n4        1 MOL     -0.367951
     28 H8          1.5900   -3.5500    0.8750 hn        1 MOL      0.252021
     29 H9          2.2150   -6.4540    0.8990 h1        1 MOL      0.130739
     30 H10         0.6190   -6.5570   -1.1540 hc        1 MOL      0.053446
     31 H11         0.5870   -4.8540   -1.1840 hc        1 MOL      0.053446
     32 H12        -0.6410   -5.1540    1.1550 hc        1 MOL      0.051008
     33 H13        -0.4970   -6.7620    0.9400 hc        1 MOL      0.051008
     34 H14        -2.7920   -6.0800    0.3330 hc        1 MOL      0.053377
     35 H15        -2.0290   -6.7770   -1.0520 hc        1 MOL      0.053377
     36 H16        -1.5070   -4.6200   -2.0070 hx        1 MOL      0.055727
     37 H17        -2.0820   -3.7520   -0.6830 hx        1 MOL      0.055727
     38 H18        -3.7150   -3.8560   -2.4360 hn        1 MOL      0.309936
     39 H19        -3.6370   -5.4860   -2.6510 hn        1 MOL      0.309936
     40 H20        -4.3060   -4.8490   -1.3120 hn        1 MOL      0.309936
     41 N4          3.8120   -4.3750   -1.0270 n         1 MOL     -0.071794
     42 C13         4.9560   -4.2260   -1.9800 c3        1 MOL      0.009639
     43 C14         6.2070   -3.4830   -1.4400 c         1 MOL      0.389981
     44 O6          7.3360   -3.7980   -1.8010 o         1 MOL     -0.530607
     45 C15         4.5180   -3.4770   -3.2910 c3        1 MOL     -0.088202
     46 C16         3.4370   -2.3030   -3.0820 c         1 MOL      0.695446
     47 O7          2.2600   -2.6120   -3.3220 o         1 MOL     -0.732113
     48 O8          3.7960   -1.2860   -2.4830 o         1 MOL     -0.732113
     49 H21         3.4200   -3.4930   -0.7470 hn        1 MOL     -0.044656
     50 H22         5.3250   -5.2120   -2.2520 h1        1 MOL      0.099876
     51 H23         3.9920   -4.2480   -3.8430 hc        1 MOL      0.023830
     52 H24         5.3530   -3.1220   -3.9050 hc        1 MOL      0.023830
     53 N5          6.0440   -2.5080   -0.5630 n         1 MOL     -0.095503
     54 C17         7.0630   -1.6890    0.0150 c3        1 MOL     -0.177735
     55 C18         7.2680   -0.2840   -0.5790 c         1 MOL      0.526354
     56 O9          8.0630    0.5130   -0.0990 o         1 MOL     -0.547373
     57 H25         5.0830   -2.2640   -0.3560 hn        1 MOL      0.114836
     58 H26         8.0360   -2.1660   -0.1200 h1        1 MOL      0.114222
     59 H27         6.9810   -1.6130    1.0950 h1        1 MOL      0.114222
     60 N6          6.5770    0.0280   -1.6810 n         1 MOL     -0.273486
     61 C19         6.6800    1.2990   -2.3760 c3        1 MOL      0.072416
     62 C20         5.5850    2.2410   -1.8570 c         1 MOL      0.535402
     63 O10         4.5340    1.8570   -1.3130 o         1 MOL     -0.507979
     64 C21         6.7220    1.0520   -3.8640 c3        1 MOL     -0.303505
     65 C22         5.4700    0.2890   -4.3340 c         1 MOL      0.588265
     66 N7          5.6760   -0.8660   -4.9090 n         1 MOL     -0.717367
     67 O11         4.3630    0.8590   -4.4410 o         1 MOL     -0.546604
     68 H28         5.9620   -0.6720   -2.0600 hn        1 MOL      0.187091
     69 H29         7.6310    1.7600   -2.1130 h1        1 MOL      0.058289
     70 H30         7.6570    0.5680   -4.1220 hc        1 MOL      0.111566
     71 H31         6.7320    1.9880   -4.4320 hc        1 MOL      0.111566
     72 H32         6.6240   -1.2300   -4.9070 hn        1 MOL      0.373706
     73 H33         4.8530   -1.3020   -5.3100 hn        1 MOL      0.373706
     74 N8          5.6960    3.5150   -2.1710 n         1 MOL     -0.451582
     75 C23         4.5760    4.4570   -2.0320 c3        1 MOL     -0.116782
     76 C24         4.0480    4.5550   -0.5680 c         1 MOL      0.739021
     77 O12         4.7640    4.3780    0.3650 o         1 MOL     -0.503152
     78 H34         6.4910    3.7630   -2.7290 hn        1 MOL      0.318647
     79 H35         3.7930    4.0310   -2.6630 h1        1 MOL      0.094487
     80 H36         4.9120    5.4580   -2.3130 h1        1 MOL      0.094487
     81 N9          2.7460    4.9040   -0.4310 n         1 MOL     -0.879785
     82 C25         2.1170    4.8880    0.8610 c3        1 MOL      0.708211
     83 C26         1.8390    3.4230    1.3280 c         1 MOL      0.434522
     84 O13         2.2870    2.4880    0.6610 o         1 MOL     -0.534934
     85 C27         0.8460    5.7120    0.8140 c3        1 MOL     -0.355755
     86 C28         1.1330    7.1010    0.4500 ca        1 MOL      0.049619
     87 C29         0.4280    7.7360   -0.5870 ca        1 MOL     -0.068404
     88 C30         2.1540    7.8200    1.0370 ca        1 MOL     -0.068404
     89 C31         0.6730    9.0970   -1.0860 ca        1 MOL     -0.367455
     90 C32         2.3700    9.1970    0.7260 ca        1 MOL     -0.367455
     91 C33         1.7030    9.7830   -0.3880 ca        1 MOL      0.419286
     92 O14         1.9710   11.0610   -0.7070 oh        1 MOL     -0.489260
     93 H37         2.1640    4.9640   -1.2580 hn        1 MOL      0.337359
     94 H38         2.8110    5.2130    1.6360 h1        1 MOL     -0.005927
     95 H39         0.4590    5.7260    1.8350 hc        1 MOL      0.086528
     96 H40         0.0780    5.1870    0.2560 hc        1 MOL      0.086528
     97 H41        -0.4440    7.1800   -0.8900 ha        1 MOL      0.093281
     98 H42         2.6760    7.3040    1.8250 ha        1 MOL      0.093281
     99 H43         0.1150    9.6250   -1.8490 ha        1 MOL      0.191711
    100 H44         3.1460    9.8030    1.1660 ha        1 MOL      0.191711
    101 H45         1.2900   11.4670   -1.2410 ho        1 MOL      0.372101
    102 N10         1.1580    3.1510    2.4660 n         1 MOL     -0.783730
    103 C34         0.8910    1.8700    3.1630 c3        1 MOL      0.604128
    104 C35         0.3390    0.7220    2.2750 c         1 MOL      0.293277
    105 O15         1.2010    0.0520    1.7080 o         1 MOL     -0.364305
    106 C36         2.1650    1.4970    4.0650 c3        1 MOL      0.167754
    107 C37         1.9040    0.5120    5.2080 c3        1 MOL     -0.203716
    108 C38         2.8310    2.7030    4.6550 c3        1 MOL     -0.294528
    109 C39         0.7970    0.9930    6.1840 c3        1 MOL     -0.110625
    110 H46         0.6790    3.9130    2.9260 hn        1 MOL      0.295309
    111 H47         0.0380    2.0010    3.8280 h1        1 MOL     -0.061859
    112 H48         2.7980    1.0660    3.2940 hc        1 MOL      0.009237
    113 H49         2.8180    0.3390    5.7690 hc        1 MOL      0.078691
    114 H50         1.6530   -0.5020    4.8960 hc        1 MOL      0.078691
    115 H51         2.1190    3.4090    5.0730 hc        1 MOL      0.074122
    116 H52         3.5970    2.3710    5.3550 hc        1 MOL      0.074122
    117 H53         3.3210    3.2460    3.8470 hc        1 MOL      0.074122
    118 H54        -0.2130    0.8890    5.7660 hc        1 MOL      0.028839
    119 H55         0.8560    0.4230    7.1120 hc        1 MOL      0.028839
    120 H56         0.8690    2.0330    6.4870 hc        1 MOL      0.028839
    121 N11        -0.9770    0.4890    2.1810 n         1 MOL     -0.554767
    122 C40        -1.6540   -0.6040    1.4840 c3        1 MOL      0.039636
    123 C41        -3.1770   -0.4300    1.1720 c         1 MOL      0.554157
    124 O16        -3.7840    0.0610    2.1120 o         1 MOL     -0.493299
    125 C42        -1.5600   -1.8410    2.3400 c3        1 MOL      0.211672
    126 O17        -2.0640   -2.9670    1.6480 oh        1 MOL     -0.652992
    127 H57        -1.6480    1.0730    2.6670 hn        1 MOL      0.312786
    128 H58        -1.0350   -0.7810    0.6030 h1        1 MOL      0.096532
    129 H59        -2.1590   -1.7730    3.2410 h1        1 MOL      0.060291
    130 H60        -0.5160   -2.0160    2.5950 h1        1 MOL      0.060291
    131 H61        -1.9450   -3.7320    2.2150 ho        1 MOL      0.418526
    132 N12        -3.6270   -0.7580   -0.0290 n         1 MOL     -0.579887
    133 C43        -5.0510   -0.7300   -0.3530 c3        1 MOL      0.274392
    134 C44        -5.4110   -1.6520   -1.5790 c         1 MOL      0.598864
    135 O18        -4.5520   -2.2340   -2.3150 o         1 MOL     -0.602379
    136 C45        -5.5480    0.7110   -0.5680 c3        1 MOL     -0.204278
    137 H62        -3.1000   -1.1420   -0.7930 hn        1 MOL      0.271274
    138 H63        -5.6910   -1.0940    0.4490 h1        1 MOL      0.055145
    139 H64        -6.6280    0.6470   -0.6050 hc        1 MOL      0.071092
    140 H65        -5.4280    1.3080    0.3370 hc        1 MOL      0.071092
    141 H66        -5.1110    1.2020   -1.4350 hc        1 MOL      0.071092
    142 N13        -6.6750   -2.0250   -1.9060 n         1 MOL     -0.724466
    143 C46        -7.9740   -1.6570   -1.3460 c3        1 MOL      0.447123
    144 C47        -8.5120   -0.3230   -1.9740 c         1 MOL      0.635719
    145 O19        -8.0410    0.0510   -3.0520 o         1 MOL     -0.576481
    146 C48        -8.9220   -2.8860   -1.3460 c3        1 MOL     -0.473119
    147 H67        -6.7370   -2.6460   -2.6980 hn        1 MOL      0.365592
    148 H68        -7.7310   -1.5810   -0.2820 h1        1 MOL     -0.013400
    149 H69        -8.3180   -3.6850   -0.9110 hc        1 MOL      0.136993
    150 H70        -9.7140   -2.6950   -0.6180 hc        1 MOL      0.136993
    151 H71        -9.3290   -3.0850   -2.3400 hc        1 MOL      0.136993
    152 N14        -9.3500    0.4650   -1.4160 n         1 MOL     -0.735595
    153 C49       -10.0140    0.4340   -0.0500 c3        1 MOL      0.033983
    154 C50        -9.2200    1.1900    0.9820 c         1 MOL      0.501320
    155 O20        -8.5300    0.6880    1.9060 o         1 MOL     -0.521533
    156 C51       -11.4720    0.9480   -0.1610 c3        1 MOL      0.077520
    157 C52       -12.2340    0.0550   -1.1400 c3        1 MOL     -0.192634
    158 C53       -13.6760    0.6180   -1.4760 c         1 MOL      0.616417
    159 O21       -13.8260    1.7200   -2.0650 o         1 MOL     -0.684582
    160 O22       -14.5920   -0.2240   -1.2630 o         1 MOL     -0.684582
    161 H72        -9.6250    1.3200   -1.8920 hn        1 MOL      0.396568
    162 H73        -9.9670   -0.6160    0.2500 h1        1 MOL      0.047345
    163 H74       -11.4720    1.9840   -0.5030 hc        1 MOL     -0.000371
    164 H75       -11.8420    0.8540    0.8570 hc        1 MOL     -0.000371
    165 H76       -12.3170   -0.9640   -0.7760 hc        1 MOL      0.053592
    166 H77       -11.7180   -0.0210   -2.0970 hc        1 MOL      0.053592
    167 N15        -9.0710    2.5550    0.7730 n         1 MOL     -0.362804
    168 C54        -8.4800    3.4040    1.7770 c3        1 MOL     -0.306151
    169 H78        -8.6260    2.9580    2.7600 h1        1 MOL      0.133057
    170 H79        -7.4130    3.5100    1.5810 h1        1 MOL      0.133057
    171 H80        -8.9550    4.3850    1.7490 h1        1 MOL      0.133057
    172 H81        -9.6040    3.0980    0.1130 hn        1 MOL      0.305955
    173 Ca1         2.3490    0.2990   -0.8820 Ca        1 MOL      1.719971
    174 O23         0.6660   -1.9460   -1.0810 oh        1 MOL     -0.881534
    175 O24         2.0250    0.9720   -3.4050 oh        1 MOL     -0.881534
    176 H82         1.1080   -2.4190   -1.7930 ho        1 MOL      0.430680
    177 H83         2.6560    0.4080   -3.8440 ho        1 MOL      0.430680
    178 H84        -0.2110   -1.7700   -1.4160 ho        1 MOL      0.430680
    179 H85         1.4100    1.2240   -4.0830 ho        1 MOL      0.430680
    180 O25         0.0010    1.2870   -1.2130 oh        1 MOL     -0.881534
    181 H86        -0.2060    2.0020   -0.6220 ho        1 MOL      0.430680
    182 H87        -0.7320    1.2470   -1.8280 ho        1 MOL      0.430680
@<TRIPOS>BOND
     1    1    2 1   
     2    1    4 1   
     3    1    5 1   
     4    1    6 1   
     5    2    3 2   
     6    2    7 1   
     7    7    8 1   
     8    7   15 1   
     9    8    9 1   
    10    8   11 1   
    11    8   16 1   
    12    9   10 2   
    13    9   19 1   
    14   11   12 1   
    15   11   17 1   
    16   11   18 1   
    17   12   13 1   
    18   12   14 1   
    19   19   20 1   
    20   19   28 1   
    21   20   21 1   
    22   20   23 1   
    23   20   29 1   
    24   21   22 2   
    25   21   41 1   
    26   23   24 1   
    27   23   30 1   
    28   23   31 1   
    29   24   25 1   
    30   24   32 1   
    31   24   33 1   
    32   25   26 1   
    33   25   34 1   
    34   25   35 1   
    35   26   27 1   
    36   26   36 1   
    37   26   37 1   
    38   27   38 1   
    39   27   39 1   
    40   27   40 1   
    41   41   42 1   
    42   41   49 1   
    43   42   43 1   
    44   42   45 1   
    45   42   50 1   
    46   43   44 2   
    47   43   53 1   
    48   45   46 1   
    49   45   51 1   
    50   45   52 1   
    51   46   47 1   
    52   46   48 1   
    53   53   54 1   
    54   53   57 1   
    55   54   55 1   
    56   54   58 1   
    57   54   59 1   
    58   55   56 2   
    59   55   60 1   
    60   60   61 1   
    61   60   68 1   
    62   61   62 1   
    63   61   64 1   
    64   61   69 1   
    65   62   63 2   
    66   62   74 1   
    67   64   65 1   
    68   64   70 1   
    69   64   71 1   
    70   65   66 1   
    71   65   67 2   
    72   66   72 1   
    73   66   73 1   
    74   74   75 1   
    75   74   78 1   
    76   75   76 1   
    77   75   79 1   
    78   75   80 1   
    79   76   77 2   
    80   76   81 1   
    81   81   82 1   
    82   81   93 1   
    83   82   83 1   
    84   82   85 1   
    85   82   94 1   
    86   83   84 2   
    87   83  102 1   
    88   85   86 1   
    89   85   95 1   
    90   85   96 1   
    91   86   87 ar  
    92   86   88 ar  
    93   87   89 ar  
    94   87   97 1   
    95   88   90 ar  
    96   88   98 1   
    97   89   91 ar  
    98   89   99 1   
    99   90   91 ar  
   100   90  100 1   
   101   91   92 1   
   102   92  101 1   
   103  102  103 1   
   104  102  110 1   
   105  103  104 1   
   106  103  106 1   
   107  103  111 1   
   108  104  105 2   
   109  104  121 1   
   110  106  107 1   
   111  106  108 1   
   112  106  112 1   
   113  107  109 1   
   114  107  113 1   
   115  107  114 1   
   116  108  115 1   
   117  108  116 1   
   118  108  117 1   
   119  109  118 1   
   120  109  119 1   
   121  109  120 1   
   122  121  122 1   
   123  121  127 1   
   124  122  123 1   
   125  122  125 1   
   126  122  128 1   
   127  123  124 2   
   128  123  132 1   
   129  125  126 1   
   130  125  129 1   
   131  125  130 1   
   132  126  131 1   
   133  132  133 1   
   134  132  137 1   
   135  133  134 1   
   136  133  136 1   
   137  133  138 1   
   138  134  135 2   
   139  134  142 1   
   140  136  139 1   
   141  136  140 1   
   142  136  141 1   
   143  142  143 1   
   144  142  147 1   
   145  143  144 1   
   146  143  146 1   
   147  143  148 1   
   148  144  145 2   
   149  144  152 1   
   150  146  149 1   
   151  146  150 1   
   152  146  151 1   
   153  152  153 1   
   154  152  161 1   
   155  153  154 1   
   156  153  156 1   
   157  153  162 1   
   158  154  155 2   
   159  154  167 1   
   160  156  157 1   
   161  156  163 1   
   162  156  164 1   
   163  157  158 1   
   164  157  165 1   
   165  157  166 1   
   166  158  159 1   
   167  158  160 1   
   168  167  168 1   
   169  167  172 1   
   170  168  169 1   
   171  168  170 1   
   172  168  171 1   
   173  174  176 1   
   174  174  178 1   
   175  175  177 1   
   176  175  179 1   
   177  180  181 1   
   178  180  182 1   
@<TRIPOS>SUBSTRUCTURE
     1 MOL         1 TEMP              0 ****  ****    0 ROOT
