@<TRIPOS>MOLECULE
MOL
  198   191     1     0     0
SMALL
resp


@<TRIPOS>ATOM
      1 C1        -10.2460    3.8090    4.7520 c3        1 MOL     -0.469141
      2 C2         -9.3250    3.6550    3.4790 c         1 MOL      0.763514
      3 O1         -8.6100    2.6820    3.2200 o         1 MOL     -0.583531
      4 H1        -11.2920    3.8240    4.4440 hc        1 MOL      0.120835
      5 H2        -10.0790    2.9690    5.4260 hc        1 MOL      0.120835
      6 H3        -10.0060    4.7400    5.2660 hc        1 MOL      0.120835
      7 N1         -9.3780    4.7330    2.6490 n         1 MOL     -0.633015
      8 C3         -8.6850    4.9760    1.3620 c3        1 MOL      0.136665
      9 C4         -8.7040    3.8560    0.2690 c         1 MOL      0.392897
     10 O2         -7.9560    3.9130   -0.7210 o         1 MOL     -0.521422
     11 C5         -7.2950    5.5130    1.5140 c3        1 MOL     -0.170297
     12 C6         -7.1860    6.7660    2.3860 c         1 MOL      0.697625
     13 O3         -8.0740    7.6430    2.2650 o         1 MOL     -0.636406
     14 O4         -6.1440    7.0770    3.0030 o         1 MOL     -0.636406
     15 H4        -10.1330    5.3940    2.7690 hn        1 MOL      0.308200
     16 H5         -9.2310    5.7850    0.8790 h1        1 MOL      0.044878
     17 H6         -6.8250    5.6590    0.5500 hc        1 MOL      0.064929
     18 H7         -6.6770    4.7010    1.9110 hc        1 MOL      0.064929
     19 N2         -9.5330    2.8840    0.3990 n         1 MOL     -0.283909
     20 C7         -9.8460    1.7240   -0.5560 c3        1 MOL     -0.000948
     21 C8         -8.6470    0.9070   -1.0000 c         1 MOL      0.519033
     22 O5         -8.8210   -0.0470   -1.7410 o         1 MOL     -0.494722
     23 C9        -10.7670    2.1820   -1.6860 c3        1 MOL     -0.002102
     24 C10       -12.1720    2.4770   -1.2060 c3        1 MOL      0.069239
     25 C11       -13.1860    2.4650   -2.3350 c3        1 MOL     -0.047306
     26 C12       -14.5750    3.0060   -1.8040 c3        1 MOL      0.010160
     27 N3        -15.6050    2.7040   -2.7920 n4        1 MOL     -0.109128
     28 H8        -10.0220    2.9500    1.2840 hn        1 MOL      0.174153
     29 H9        -10.4600    1.0170    0.0110 h1        1 MOL      0.080070
     30 H10       -10.8210    1.2820   -2.2940 hc        1 MOL      0.037031
     31 H11       -10.3160    2.9640   -2.3050 hc        1 MOL      0.037031
     32 H12       -12.0930    3.4240   -0.6630 hc        1 MOL     -0.014681
     33 H13       -12.4290    1.7690   -0.4210 hc        1 MOL     -0.014681
     34 H14       -13.3670    1.4300   -2.6300 hc        1 MOL      0.030988
     35 H15       -12.7050    3.0890   -3.1010 hc        1 MOL      0.030988
     36 H16       -14.4460    4.0530   -1.5610 hx        1 MOL      0.071932
     37 H17       -14.8630    2.4330   -0.9180 hx        1 MOL      0.071932
     38 H18       -15.3950    3.1560   -3.6810 hn        1 MOL      0.198137
     39 H19       -15.7140    1.7210   -2.9790 hn        1 MOL      0.198137
     40 H20       -16.5040    3.0950   -2.5500 hn        1 MOL      0.198137
     41 N4         -7.4690    1.1000   -0.3940 n         1 MOL     -0.693662
     42 C13        -6.2540    0.2830   -0.6990 c3        1 MOL      0.737791
     43 C14        -5.3510    0.5250    0.5570 c         1 MOL      0.364940
     44 O6         -4.8300    1.6220    0.8270 o         1 MOL     -0.526119
     45 C15        -5.5530    0.7790   -1.9380 c3        1 MOL     -0.296471
     46 C16        -4.3900   -0.1150   -2.2460 c         1 MOL      0.858680
     47 O7         -4.0890   -0.3840   -3.4250 o         1 MOL     -0.791245
     48 O8         -3.7090   -0.6800   -1.3820 o         1 MOL     -0.791245
     49 H21        -7.4490    1.8070    0.3340 hn        1 MOL      0.374144
     50 H22        -6.3520   -0.7910   -0.8670 h1        1 MOL     -0.125934
     51 H23        -5.2620    1.7910   -1.6560 hc        1 MOL      0.067465
     52 H24        -6.1580    0.8590   -2.8410 hc        1 MOL      0.067465
     53 N5         -5.2220   -0.4630    1.4300 n         1 MOL     -0.417651
     54 C17        -6.1320   -1.5180    1.7260 c3        1 MOL      0.003980
     55 C18        -5.7730   -2.8970    1.1130 c         1 MOL      0.421119
     56 O9         -6.2040   -3.8780    1.7340 o         1 MOL     -0.586131
     57 H25        -4.6230   -0.2420    2.2060 hn        1 MOL      0.297824
     58 H26        -7.1370   -1.2270    1.4080 h1        1 MOL      0.063157
     59 H27        -6.3010   -1.7210    2.7830 h1        1 MOL      0.063157
     60 N6         -4.9950   -2.9820    0.0450 n         1 MOL     -0.020476
     61 C19        -4.6720   -4.2570   -0.5620 c3        1 MOL     -0.043133
     62 C20        -3.2060   -4.4550   -0.9080 c         1 MOL      0.271800
     63 O10        -2.4330   -3.5820   -1.2250 o         1 MOL     -0.526580
     64 C21        -5.6040   -4.6440   -1.7120 c3        1 MOL     -0.227970
     65 C22        -5.6060   -3.7250   -2.9290 c         1 MOL      0.650236
     66 O11        -4.5200   -3.5120   -3.5100 o         1 MOL     -0.678297
     67 O12        -6.5920   -2.9980   -3.2770 o         1 MOL     -0.678297
     68 H28        -4.6040   -2.1120   -0.2910 hn        1 MOL      0.101548
     69 H29        -4.7640   -5.0440    0.1920 h1        1 MOL      0.070064
     70 H30        -6.6010   -4.6800   -1.2830 hc        1 MOL      0.068104
     71 H31        -5.2220   -5.6020   -2.0750 hc        1 MOL      0.068104
     72 N7         -2.7140   -5.7350   -0.7780 n         1 MOL     -0.231696
     73 C23        -1.2750   -6.0010   -0.7050 c3        1 MOL      0.051515
     74 C24        -0.4840   -5.2860    0.3690 c         1 MOL      0.462116
     75 O13         0.5010   -4.6410   -0.0110 o         1 MOL     -0.525557
     76 H32        -3.2910   -6.4550   -0.3720 hn        1 MOL      0.247588
     77 H33        -0.8800   -5.6100   -1.6390 h1        1 MOL      0.014019
     78 H34        -1.1580   -7.0820   -0.7310 h1        1 MOL      0.014019
     79 N8         -1.0160   -5.1600    1.6090 n         1 MOL     -0.392213
     80 C25        -0.6470   -4.1190    2.6500 c3        1 MOL     -0.101772
     81 C26        -0.3760   -2.6920    2.0940 c         1 MOL      0.481058
     82 O14        -1.0140   -2.1140    1.2200 o         1 MOL     -0.389208
     83 C27        -1.7560   -4.1570    3.6900 c3        1 MOL      0.271565
     84 C28        -3.1070   -3.6360    3.1030 c3        1 MOL     -0.339786
     85 O15        -2.0870   -5.4570    4.1160 oh        1 MOL     -0.557857
     86 H35        -1.7940   -5.7090    1.9180 hn        1 MOL      0.252335
     87 H36         0.2990   -4.4380    3.0970 h1        1 MOL      0.076460
     88 H37        -1.3530   -3.6570    4.5670 h1        1 MOL      0.018358
     89 H38        -1.3070   -5.8190    4.5360 ho        1 MOL      0.371636
     90 H39        -3.0880   -2.5510    2.9640 hc        1 MOL      0.127227
     91 H40        -3.1110   -4.0800    2.1050 hc        1 MOL      0.127227
     92 H41        -3.8520   -4.0730    3.7600 hc        1 MOL      0.127227
     93 N9          0.5040   -1.9820    2.7460 n         1 MOL     -0.282371
     94 C29         0.8180   -0.5430    2.5700 c3        1 MOL     -0.092557
     95 C30         2.0650   -0.3350    1.7030 c         1 MOL      0.556745
     96 O16         2.2820    0.6760    0.9870 o         1 MOL     -0.561038
     97 C31         0.8800    0.2190    3.8870 c3        1 MOL      0.083637
     98 C32        -0.3370    0.0580    4.7110 c3        1 MOL      0.082250
     99 C33         1.1160    1.6960    3.6060 c3        1 MOL     -0.211112
    100 C34        -0.3590    0.3190    6.1860 c3        1 MOL     -0.371845
    101 H42         1.0460   -2.4140    3.4800 hn        1 MOL      0.209691
    102 H43        -0.0120   -0.0550    2.0620 h1        1 MOL      0.091581
    103 H44         1.6990   -0.2020    4.4670 hc        1 MOL     -0.010917
    104 H45        -0.6720   -0.9600    4.5310 hc        1 MOL      0.005151
    105 H46        -1.1330    0.6330    4.2420 hc        1 MOL      0.005151
    106 H47         2.1640    1.7510    3.3030 hc        1 MOL      0.077131
    107 H48         0.4730    2.2150    2.8970 hc        1 MOL      0.077131
    108 H49         1.0550    2.3300    4.4850 hc        1 MOL      0.077131
    109 H50         0.5890    0.7180    6.5330 hc        1 MOL      0.099667
    110 H51        -1.1160    1.0880    6.3460 hc        1 MOL      0.099667
    111 H52        -0.6600   -0.6070    6.6660 hc        1 MOL      0.099667
    112 N10         3.0480   -1.2400    1.7270 n         1 MOL     -0.307420
    113 C35         4.3010   -1.3070    0.9050 c3        1 MOL     -0.122829
    114 C36         5.4900   -1.6100    1.7950 c         1 MOL      0.663331
    115 O17         5.2510   -1.9670    2.9350 o         1 MOL     -0.530995
    116 C37         4.1590   -2.3960   -0.2640 c3        1 MOL      0.463751
    117 C38         2.9690   -2.1310   -1.2050 c3        1 MOL     -0.396113
    118 O18         5.3270   -2.5760   -0.9440 oh        1 MOL     -0.663906
    119 H53         2.8290   -2.0260    2.3090 hn        1 MOL      0.189641
    120 H54         4.3250   -0.3470    0.3950 h1        1 MOL      0.126602
    121 H55         4.0040   -3.3400    0.2580 h1        1 MOL     -0.043618
    122 H56         5.3600   -3.4260   -1.3790 ho        1 MOL      0.420482
    123 H57         2.0530   -2.3100   -0.6280 hc        1 MOL      0.092293
    124 H58         3.1320   -1.1680   -1.6700 hc        1 MOL      0.092293
    125 H59         3.1700   -2.8150   -2.0220 hc        1 MOL      0.092293
    126 N11         6.7430   -1.5070    1.3200 n         1 MOL     -0.643826
    127 C39         7.9830   -1.9760    1.9200 c3        1 MOL      0.108999
    128 C40         9.1210   -0.9850    1.8900 c         1 MOL      0.746511
    129 O19         9.7090   -0.7010    2.9090 o         1 MOL     -0.595819
    130 C41         8.3600   -3.2890    1.3730 c3        1 MOL      0.237130
    131 C42         9.4560   -3.9930    2.0630 c3        1 MOL     -0.356383
    132 O20         8.7430   -3.2880    0.0550 oh        1 MOL     -0.560859
    133 H60         6.8620   -1.3850    0.3150 hn        1 MOL      0.296433
    134 H61         7.7910   -2.1570    2.9780 h1        1 MOL      0.064541
    135 H62         7.4890   -3.9250    1.5100 h1        1 MOL      0.039931
    136 H63         7.9640   -3.5590   -0.4410 ho        1 MOL      0.356514
    137 H64        10.3890   -3.4270    2.0710 hc        1 MOL      0.095536
    138 H65         9.0980   -4.3420    3.0290 hc        1 MOL      0.095536
    139 H66         9.6470   -4.9660    1.6210 hc        1 MOL      0.095536
    140 N12         9.4260   -0.2890    0.7350 n         1 MOL     -0.536267
    141 C43        10.5180    0.7210    0.6530 c3        1 MOL     -0.083742
    142 C44        10.3290    1.5540   -0.6320 c         1 MOL      0.605741
    143 O21         9.8600    1.0370   -1.6270 o         1 MOL     -0.510822
    144 C45        11.8370   -0.0250    0.5580 c3        1 MOL      0.096751
    145 C46        13.1460    0.7800    0.4160 c3        1 MOL     -0.203511
    146 C47        14.2910   -0.2440    0.0740 c3        1 MOL      0.073296
    147 C48        15.5970    0.5270    0.1530 c3        1 MOL      0.014461
    148 N13        16.7850   -0.3310   -0.0690 n4        1 MOL     -0.122556
    149 H67         9.0830   -0.5330   -0.1850 hn        1 MOL      0.268988
    150 H68        10.5350    1.4250    1.4870 h1        1 MOL      0.114414
    151 H69        11.7550   -0.7580   -0.2430 hc        1 MOL      0.025744
    152 H70        11.9320   -0.6710    1.4360 hc        1 MOL      0.025744
    153 H71        13.2880    1.1760    1.4140 hc        1 MOL      0.073951
    154 H72        13.0960    1.5120   -0.3790 hc        1 MOL      0.073951
    155 H73        14.1860   -0.6350   -0.9330 hc        1 MOL      0.007534
    156 H74        14.2470   -1.0710    0.7930 hc        1 MOL      0.007534
    157 H75        15.6630    1.0430    1.1150 hx        1 MOL      0.069119
    158 H76        15.5700    1.1960   -0.7040 hx        1 MOL      0.069119
    159 H77        16.9570   -1.0490    0.6190 hn        1 MOL      0.204764
    160 H78        16.6010   -0.7900   -0.9560 hn        1 MOL      0.204764
    161 H79        17.5940    0.2520   -0.2060 hn        1 MOL      0.204764
    162 N14        10.6780    2.7810   -0.5900 n         1 MOL     -0.547751
    163 C49        10.4970    3.6570   -1.7600 c3        1 MOL      0.325168
    164 C50         9.1100    3.5970   -2.4200 c         1 MOL      0.190484
    165 O22         9.0250    3.4320   -3.6530 o         1 MOL     -0.499470
    166 C51        10.9250    5.0760   -1.3800 c3        1 MOL     -0.126428
    167 C52        10.6850    6.0860   -2.4520 c3        1 MOL     -0.140527
    168 C53        11.2080    7.4900   -2.1720 c         1 MOL      0.686062
    169 O23        11.3790    7.9150   -0.9700 o         1 MOL     -0.646641
    170 O24        11.4710    8.2650   -3.1460 o         1 MOL     -0.646641
    171 H80        10.9660    3.1420    0.3080 hn        1 MOL      0.259038
    172 H81        11.2050    3.3000   -2.5080 h1        1 MOL      0.041356
    173 H82        11.9930    4.9960   -1.1750 hc        1 MOL      0.032869
    174 H83        10.3700    5.4120   -0.5030 hc        1 MOL      0.032869
    175 H84         9.6150    6.2230   -2.5910 hc        1 MOL      0.050729
    176 H85        11.1800    5.6930   -3.3380 hc        1 MOL      0.050729
    177 N15         7.9730    3.8700   -1.7560 n         1 MOL     -0.202757
    178 C54         7.8310    4.3560   -0.3540 c3        1 MOL     -0.046005
    179 H86         7.3080    3.6060    0.2390 h1        1 MOL      0.056715
    180 H87         8.8190    4.5310    0.0720 h1        1 MOL      0.056715
    181 H88         7.2620    5.2860   -0.3470 h1        1 MOL      0.056715
    182 H89         7.1360    3.7140   -2.3050 hn        1 MOL      0.270545
    183 Ca1        -2.2880   -2.1090   -3.4010 Ca        1 MOL      1.790633
    184 O25        -0.0420   -2.1060   -1.9760 oh        1 MOL     -0.815425
    185 O26        -0.0290   -1.8780   -5.0180 oh        1 MOL     -0.815425
    186 H90         0.7830   -2.5400   -2.1600 ho        1 MOL      0.406259
    187 H91         0.1780   -2.2300   -5.8860 ho        1 MOL      0.406259
    188 H92        -0.2440   -2.3530   -1.0770 ho        1 MOL      0.406259
    189 H93         0.7800   -1.4560   -4.7250 ho        1 MOL      0.406259
    190 O27        -1.0500    0.4610   -3.3050 oh        1 MOL     -0.815425
    191 H94        -1.2370    1.4010   -3.2740 ho        1 MOL      0.406259
    192 H95        -0.1600    0.3860   -2.9520 ho        1 MOL      0.406259
    193 O28        -1.0080   -4.4000   -4.2370 oh        1 MOL     -0.815425
    194 H96        -0.7800   -5.3340   -4.2550 ho        1 MOL      0.406259
    195 H97        -0.2110   -3.9630   -4.5290 ho        1 MOL      0.406259
    196 O29        -3.1590   -2.1870   -6.0550 oh        1 MOL     -0.815425
    197 H98        -3.1030   -1.7960   -6.9310 ho        1 MOL      0.406259
    198 H99        -3.7980   -2.8990   -6.1540 ho        1 MOL      0.406259
@<TRIPOS>BOND
     1    1    2 1   
     2    1    4 1   
     3    1    5 1   
     4    1    6 1   
     5    2    3 2   
     6    2    7 1   
     7    7    8 1   
     8    7   15 1   
     9    8    9 1   
    10    8   11 1   
    11    8   16 1   
    12    9   10 2   
    13    9   19 1   
    14   11   12 1   
    15   11   17 1   
    16   11   18 1   
    17   12   13 1   
    18   12   14 1   
    19   19   20 1   
    20   19   28 1   
    21   20   21 1   
    22   20   23 1   
    23   20   29 1   
    24   21   22 2   
    25   21   41 1   
    26   23   24 1   
    27   23   30 1   
    28   23   31 1   
    29   24   25 1   
    30   24   32 1   
    31   24   33 1   
    32   25   26 1   
    33   25   34 1   
    34   25   35 1   
    35   26   27 1   
    36   26   36 1   
    37   26   37 1   
    38   27   38 1   
    39   27   39 1   
    40   27   40 1   
    41   41   42 1   
    42   41   49 1   
    43   42   43 1   
    44   42   45 1   
    45   42   50 1   
    46   43   44 2   
    47   43   53 1   
    48   45   46 1   
    49   45   51 1   
    50   45   52 1   
    51   46   47 1   
    52   46   48 1   
    53   53   54 1   
    54   53   57 1   
    55   54   55 1   
    56   54   58 1   
    57   54   59 1   
    58   55   56 2   
    59   55   60 1   
    60   60   61 1   
    61   60   68 1   
    62   61   62 1   
    63   61   64 1   
    64   61   69 1   
    65   62   63 2   
    66   62   72 1   
    67   64   65 1   
    68   64   70 1   
    69   64   71 1   
    70   65   66 1   
    71   65   67 1   
    72   72   73 1   
    73   72   76 1   
    74   73   74 1   
    75   73   77 1   
    76   73   78 1   
    77   74   75 2   
    78   74   79 1   
    79   79   80 1   
    80   79   86 1   
    81   80   81 1   
    82   80   83 1   
    83   80   87 1   
    84   81   82 2   
    85   81   93 1   
    86   83   84 1   
    87   83   85 1   
    88   83   88 1   
    89   84   90 1   
    90   84   91 1   
    91   84   92 1   
    92   85   89 1   
    93   93   94 1   
    94   93  101 1   
    95   94   95 1   
    96   94   97 1   
    97   94  102 1   
    98   95   96 2   
    99   95  112 1   
   100   97   98 1   
   101   97   99 1   
   102   97  103 1   
   103   98  100 1   
   104   98  104 1   
   105   98  105 1   
   106   99  106 1   
   107   99  107 1   
   108   99  108 1   
   109  100  109 1   
   110  100  110 1   
   111  100  111 1   
   112  112  113 1   
   113  112  119 1   
   114  113  114 1   
   115  113  116 1   
   116  113  120 1   
   117  114  115 2   
   118  114  126 1   
   119  116  117 1   
   120  116  118 1   
   121  116  121 1   
   122  117  123 1   
   123  117  124 1   
   124  117  125 1   
   125  118  122 1   
   126  126  127 1   
   127  126  133 1   
   128  127  128 1   
   129  127  130 1   
   130  127  134 1   
   131  128  129 2   
   132  128  140 1   
   133  130  131 1   
   134  130  132 1   
   135  130  135 1   
   136  131  137 1   
   137  131  138 1   
   138  131  139 1   
   139  132  136 1   
   140  140  141 1   
   141  140  149 1   
   142  141  142 1   
   143  141  144 1   
   144  141  150 1   
   145  142  143 2   
   146  142  162 1   
   147  144  145 1   
   148  144  151 1   
   149  144  152 1   
   150  145  146 1   
   151  145  153 1   
   152  145  154 1   
   153  146  147 1   
   154  146  155 1   
   155  146  156 1   
   156  147  148 1   
   157  147  157 1   
   158  147  158 1   
   159  148  159 1   
   160  148  160 1   
   161  148  161 1   
   162  162  163 1   
   163  162  171 1   
   164  163  164 1   
   165  163  166 1   
   166  163  172 1   
   167  164  165 2   
   168  164  177 1   
   169  166  167 1   
   170  166  173 1   
   171  166  174 1   
   172  167  168 1   
   173  167  175 1   
   174  167  176 1   
   175  168  169 1   
   176  168  170 1   
   177  177  178 1   
   178  177  182 1   
   179  178  179 1   
   180  178  180 1   
   181  178  181 1   
   182  184  186 1   
   183  184  188 1   
   184  185  187 1   
   185  185  189 1   
   186  190  191 1   
   187  190  192 1   
   188  193  194 1   
   189  193  195 1   
   190  196  197 1   
   191  196  198 1   
@<TRIPOS>SUBSTRUCTURE
     1 MOL         1 TEMP              0 ****  ****    0 ROOT
