@<TRIPOS>MOLECULE
MOL
  195   189     1     0     0
SMALL
resp


@<TRIPOS>ATOM
      1 C1          2.6560    2.4130    1.1330 c3        1 MOL     -0.012267
      2 C2          1.5570    3.0690    0.2600 c         1 MOL      0.592883
      3 O1          0.4250    2.5680    0.0630 o         1 MOL     -0.558203
      4 H1          3.3350    1.8470    0.4970 hc        1 MOL     -0.047800
      5 H2          3.2130    3.1870    1.6600 hc        1 MOL     -0.047800
      6 H3          2.1930    1.7420    1.8580 hc        1 MOL     -0.047800
      7 N1          1.8590    4.2220   -0.3470 n         1 MOL     -0.529181
      8 C3          0.9640    4.9450   -1.2740 c3        1 MOL      0.260234
      9 C4         -0.4360    5.1980   -0.5790 c         1 MOL      0.609649
     10 O2         -1.4790    4.9580   -1.2160 o         1 MOL     -0.462284
     11 C5          0.9860    4.4030   -2.7550 c3        1 MOL     -0.232110
     12 C6          0.4880    5.4270   -3.8500 c         1 MOL      0.646656
     13 O3          1.0470    5.3840   -4.9830 o         1 MOL     -0.588301
     14 O4         -0.2930    6.3430   -3.5550 o         1 MOL     -0.588301
     15 H4          2.7340    4.6370   -0.0490 hn        1 MOL      0.267087
     16 H5          1.3720    5.9580   -1.3030 h1        1 MOL     -0.006577
     17 H6          0.3370    3.5280   -2.6880 hc        1 MOL      0.056703
     18 H7          2.0170    4.1160   -2.9930 hc        1 MOL      0.056703
     19 N2         -0.4630    5.7630    0.6370 n         1 MOL     -0.483039
     20 C7         -1.7260    6.0690    1.3500 c3        1 MOL     -0.018496
     21 C8         -2.5950    7.1760    0.7860 c         1 MOL      0.342830
     22 O5         -2.0940    8.1840    0.2880 o         1 MOL     -0.506787
     23 C9         -1.5760    6.2290    2.9030 c3        1 MOL      0.098807
     24 C10        -0.6290    7.3580    3.2840 c3        1 MOL      0.261639
     25 C11        -1.2630    4.8740    3.5980 c3        1 MOL     -0.245473
     26 C12        -0.7650    7.8760    4.7300 c3        1 MOL     -0.360260
     27 H8          0.4180    6.0190    1.0700 hn        1 MOL      0.217824
     28 H9         -2.3400    5.1700    1.2310 h1        1 MOL      0.091874
     29 H10        -2.5410    6.5420    3.3030 hc        1 MOL      0.038921
     30 H11        -0.6960    8.2050    2.6130 hc        1 MOL     -0.040502
     31 H12         0.3880    6.9960    3.1430 hc        1 MOL     -0.040502
     32 H13        -1.2120    4.9680    4.6850 hc        1 MOL      0.054581
     33 H14        -2.0590    4.2030    3.2850 hc        1 MOL      0.054581
     34 H15        -0.3150    4.5560    3.1720 hc        1 MOL      0.054581
     35 H16        -0.8570    7.0760    5.4710 hc        1 MOL      0.065465
     36 H17         0.1050    8.5150    4.8060 hc        1 MOL      0.065465
     37 H18        -1.6720    8.4880    4.7810 hc        1 MOL      0.065465
     38 N3         -3.9260    7.0260    0.9190 n         1 MOL     -0.311517
     39 C13        -4.8920    6.0540    1.4670 c3        1 MOL     -0.043444
     40 C14        -4.9620    4.7780    0.6410 c         1 MOL      0.692101
     41 O6         -5.4550    3.7940    1.1900 o         1 MOL     -0.621363
     42 C15        -6.3230    6.6640    1.5330 c3        1 MOL     -0.207826
     43 C16        -6.8530    7.0420    0.1520 c         1 MOL      0.732293
     44 O7         -8.0990    6.9860    0.0160 o         1 MOL     -0.643454
     45 O8         -6.0760    7.4300   -0.7620 o         1 MOL     -0.643454
     46 H19        -4.4100    7.7450    0.4070 hn        1 MOL      0.227747
     47 H20        -4.6860    5.8490    2.5160 h1        1 MOL      0.025545
     48 H21        -6.2070    7.6350    2.0110 hc        1 MOL      0.055662
     49 H22        -7.0650    5.9990    1.9630 hc        1 MOL      0.055662
     50 N4         -4.5420    4.8460   -0.6350 n         1 MOL     -0.351043
     51 C17        -4.3980    3.6970   -1.5560 c3        1 MOL     -0.461145
     52 C18        -5.7470    2.9700   -1.7930 c         1 MOL      0.685351
     53 O9         -6.7830    3.6130   -1.9480 o         1 MOL     -0.512835
     54 H23        -4.1750    5.7400   -0.9050 hn        1 MOL      0.373588
     55 H24        -3.6770    2.9890   -1.1490 h1        1 MOL      0.181796
     56 H25        -4.0730    4.1250   -2.5120 h1        1 MOL      0.181796
     57 N5         -5.6780    1.6090   -1.8180 n         1 MOL     -0.464937
     58 C19        -6.7710    0.8610   -2.3890 c3        1 MOL     -0.024972
     59 C20        -7.6130    0.2330   -1.3020 c         1 MOL      0.445402
     60 O10        -8.6780   -0.3390   -1.6130 o         1 MOL     -0.579379
     61 C21        -6.1190   -0.3810   -3.1210 c3        1 MOL     -0.072506
     62 C22        -4.8300   -0.8620   -2.5320 c         1 MOL      0.742207
     63 O11        -3.7800   -0.8950   -3.1730 o         1 MOL     -0.698367
     64 O12        -4.8990   -1.2570   -1.3550 o         1 MOL     -0.698367
     65 H26        -4.8450    1.0410   -1.7520 hn        1 MOL      0.291013
     66 H27        -7.3580    1.4820   -3.0680 h1        1 MOL      0.099520
     67 H28        -5.8370   -0.0860   -4.1270 hc        1 MOL     -0.005431
     68 H29        -6.8120   -1.2160   -3.2390 hc        1 MOL     -0.005431
     69 N6         -7.2810    0.0880   -0.0180 n         1 MOL     -0.215275
     70 C23        -8.0000   -0.6910    0.9470 c3        1 MOL     -0.236464
     71 C24        -8.0500   -2.1770    0.8220 c         1 MOL      0.479506
     72 O13        -8.6960   -2.8430    1.6140 o         1 MOL     -0.605038
     73 H30        -6.3470    0.3880    0.2230 hn        1 MOL      0.234441
     74 H31        -9.0330   -0.3780    0.8910 h1        1 MOL      0.120528
     75 H32        -7.6310   -0.4740    1.9520 h1        1 MOL      0.120528
     76 N7         -7.2330   -2.7500   -0.0680 n         1 MOL      0.094883
     77 C25        -6.9320   -4.1770   -0.2600 c3        1 MOL     -0.163265
     78 C26        -6.4170   -5.0070    0.9300 c         1 MOL      0.523861
     79 O14        -6.7530   -6.1850    1.0610 o         1 MOL     -0.518738
     80 C27        -8.1610   -4.7780   -0.9710 c3        1 MOL      0.268005
     81 C28        -8.5090   -4.0330   -2.3150 c3        1 MOL     -0.337091
     82 C29        -9.5160   -4.8890   -3.2000 c         1 MOL      0.628575
     83 N8        -10.6260   -4.3830   -3.6340 n         1 MOL     -0.730912
     84 O15        -9.2990   -6.0490   -3.4250 o         1 MOL     -0.577829
     85 H33        -6.6440   -2.0860   -0.5620 hn        1 MOL      0.008551
     86 H34        -6.1250   -4.1700   -0.9990 h1        1 MOL      0.102597
     87 H35        -9.0390   -4.7750   -0.3300 hc        1 MOL     -0.034182
     88 H36        -7.9250   -5.8350   -1.1300 hc        1 MOL     -0.034182
     89 H37        -7.5970   -3.8020   -2.8570 hc        1 MOL      0.100204
     90 H38        -8.9760   -3.0900   -2.0300 hc        1 MOL      0.100204
     91 H39       -10.7710   -3.3970   -3.5020 hn        1 MOL      0.335882
     92 H40       -11.2540   -5.0110   -4.1230 hn        1 MOL      0.335882
     93 N9         -5.7510   -4.3010    1.8610 n         1 MOL     -0.391243
     94 C30        -5.0650   -4.8250    3.0360 c3        1 MOL     -0.120777
     95 C31        -3.5780   -4.5990    3.0580 c         1 MOL      0.669625
     96 O16        -2.8560   -5.1920    3.8760 o         1 MOL     -0.615900
     97 C32        -5.7620   -4.3120    4.3540 c3        1 MOL      0.433853
     98 C33        -5.7220   -2.7890    4.4660 c3        1 MOL     -0.274508
     99 C34        -7.1240   -4.9320    4.4850 c3        1 MOL     -0.274508
    100 H41        -5.5990   -3.3270    1.6230 hn        1 MOL      0.242815
    101 H42        -5.1710   -5.9180    3.0490 h1        1 MOL      0.093942
    102 H43        -5.1440   -4.7260    5.1580 hc        1 MOL     -0.095855
    103 H44        -4.7300   -2.3590    4.3450 hc        1 MOL      0.051169
    104 H45        -6.4160   -2.3640    3.7460 hc        1 MOL      0.051169
    105 H46        -6.0720   -2.5100    5.4710 hc        1 MOL      0.051169
    106 H47        -7.4660   -4.8140    5.5130 hc        1 MOL      0.051169
    107 H48        -7.7350   -4.3650    3.7800 hc        1 MOL      0.051169
    108 H49        -7.0250   -5.9820    4.2350 hc        1 MOL      0.051169
    109 N10        -3.0270   -3.7970    2.1830 n         1 MOL     -0.576621
    110 C35        -1.6200   -3.3560    2.2560 c3        1 MOL      0.423097
    111 C36        -0.9140   -3.2580    0.8990 c         1 MOL      0.423478
    112 O17        -1.5420   -3.1700   -0.1360 o         1 MOL     -0.512346
    113 C37        -1.6270   -2.0840    3.0560 c3        1 MOL     -0.330216
    114 C38        -0.2070   -1.6840    3.5340 c         1 MOL      0.563058
    115 N11         0.3060   -0.5750    3.1500 n         1 MOL     -0.621823
    116 O18         0.5270   -2.4660    4.1490 o         1 MOL     -0.563901
    117 H50        -3.6660   -3.1910    1.6860 hn        1 MOL      0.252364
    118 H51        -1.0590   -4.1050    2.8160 h1        1 MOL      0.014657
    119 H52        -2.2830   -2.1110    3.9270 hc        1 MOL      0.105563
    120 H53        -1.9680   -1.2970    2.3960 hc        1 MOL      0.105563
    121 H54        -0.1770    0.1700    2.6820 hn        1 MOL      0.312953
    122 H55         1.1940   -0.3350    3.5730 hn        1 MOL      0.312953
    123 N12         0.3420   -3.1050    0.9180 n         1 MOL     -0.511974
    124 C39         1.1960   -2.6350   -0.1770 c3        1 MOL      0.389101
    125 C40         2.5710   -3.3040    0.0040 c         1 MOL      0.586532
    126 O19         2.9780   -3.5310    1.1520 o         1 MOL     -0.619987
    127 C41         1.3460   -1.0720   -0.1320 c3        1 MOL     -0.574177
    128 C42         2.0980   -0.4600   -1.3300 ca        1 MOL     -0.011835
    129 C43         3.5370   -0.3430   -1.2660 ca        1 MOL     -0.004627
    130 C44         1.4850    0.0670   -2.5030 ca        1 MOL     -0.004627
    131 C45         4.2890    0.1950   -2.3120 ca        1 MOL     -0.331871
    132 C46         2.2230    0.5880   -3.5250 ca        1 MOL     -0.331871
    133 C47         3.6560    0.7280   -3.4660 ca        1 MOL      0.316068
    134 O20         4.3840    1.0250   -4.5670 oh        1 MOL     -0.472932
    135 H56         0.7800   -3.0960    1.8280 hn        1 MOL      0.305161
    136 H57         0.8090   -2.9620   -1.1410 h1        1 MOL      0.037841
    137 H58         1.7750   -0.8140    0.8380 hc        1 MOL      0.200713
    138 H59         0.3460   -0.6480   -0.0790 hc        1 MOL      0.200713
    139 H60         4.0800   -0.6870   -0.3970 ha        1 MOL      0.158626
    140 H61         0.4140    0.1360   -2.6170 ha        1 MOL      0.158626
    141 H62         5.3580    0.3050   -2.2510 ha        1 MOL      0.178721
    142 H63         1.7720    1.0320   -4.4090 ha        1 MOL      0.178721
    143 H64         5.3070    0.8500   -4.3480 ho        1 MOL      0.364278
    144 N13         3.2710   -3.5350   -1.0970 n         1 MOL     -0.812455
    145 C48         4.3950   -4.4070   -1.1260 c3        1 MOL      0.286143
    146 C49         5.6720   -3.9070   -1.9620 c         1 MOL      0.652340
    147 O21         5.7630   -3.9930   -3.1240 o         1 MOL     -0.512204
    148 C50         3.9430   -5.7840   -1.6310 c3        1 MOL      0.125881
    149 C51         5.0460   -6.7760   -1.9320 c3        1 MOL     -0.276468
    150 C52         4.5240   -8.1800   -2.1030 c         1 MOL      0.739411
    151 O22         4.6640   -8.9850   -1.1520 o         1 MOL     -0.650199
    152 O23         4.1990   -8.5080   -3.2330 o         1 MOL     -0.650199
    153 H65         2.7970   -3.2960   -1.9640 hn        1 MOL      0.366452
    154 H66         4.7020   -4.5670   -0.0940 h1        1 MOL      0.092941
    155 H67         3.3360   -5.7270   -2.5390 hc        1 MOL     -0.014982
    156 H68         3.2850   -6.3100   -0.9430 hc        1 MOL     -0.014982
    157 H69         5.7470   -6.8120   -1.0920 hc        1 MOL      0.060283
    158 H70         5.6500   -6.4400   -2.7770 hc        1 MOL      0.060283
    159 N14         6.6840   -3.2700   -1.2240 n         1 MOL     -0.720434
    160 C53         6.7070   -2.8460    0.1980 c3        1 MOL      0.096903
    161 C54         6.9790   -3.9860    1.2360 c         1 MOL      0.263764
    162 O24         7.5550   -4.9570    0.8750 o         1 MOL     -0.467892
    163 C55         7.9000   -1.9020    0.4480 c3        1 MOL      0.831174
    164 C56         7.7830   -0.5480   -0.2640 c3        1 MOL     -1.336845
    165 C57         9.1430    0.1450    0.0280 c         1 MOL      1.030158
    166 O25         9.4730    0.5460    1.1790 o         1 MOL     -0.673165
    167 O26         9.9200    0.4660   -0.8950 o         1 MOL     -0.673165
    168 H71         7.4750   -2.9340   -1.7620 hn        1 MOL      0.304249
    169 H72         5.7870   -2.3440    0.4630 h1        1 MOL      0.058591
    170 H73         8.8610   -2.3600    0.2210 hc        1 MOL     -0.135957
    171 H74         8.0270   -1.6180    1.4950 hc        1 MOL     -0.135957
    172 H75         6.9150    0.0580   -0.0030 hc        1 MOL      0.267573
    173 H76         7.7340   -0.7800   -1.3320 hc        1 MOL      0.267573
    174 N15         6.5550   -3.6970    2.4750 n         1 MOL     -0.162189
    175 C58         6.8810   -4.4770    3.6830 c3        1 MOL     -0.514422
    176 H77         7.5750   -5.2760    3.4220 h1        1 MOL      0.178561
    177 H78         7.3410   -3.8240    4.4250 h1        1 MOL      0.178561
    178 H79         5.9690   -4.9090    4.0930 h1        1 MOL      0.178561
    179 H80         6.1730   -2.7720    2.6240 hn        1 MOL      0.231163
    180 Ca1        11.2180    2.3400    0.6010 Ca        1 MOL      1.395404
    181 O27        13.0800    1.8010   -1.1890 oh        1 MOL     -0.789539
    182 H81        13.2740    1.4570   -2.0610 ho        1 MOL      0.340765
    183 H82        13.9420    1.8280   -0.7600 ho        1 MOL      0.340765
    184 O28        10.1090    3.7130   -1.4240 oh        1 MOL     -0.789539
    185 H83        10.4000    4.4920   -1.9000 ho        1 MOL      0.340765
    186 H84         9.2040    3.9080   -1.1920 ho        1 MOL      0.340765
    187 O29        12.8310    4.3630    0.6020 oh        1 MOL     -0.789539
    188 H85        12.9550    5.2650    0.2970 ho        1 MOL      0.340765
    189 H86        13.6490    4.1540    1.0490 ho        1 MOL      0.340765
    190 O30        13.4160    2.3220    2.5830 oh        1 MOL     -0.789539
    191 H87        13.9330    1.5330    2.4530 ho        1 MOL      0.340765
    192 H88        14.0610    3.0110    2.7240 ho        1 MOL      0.340765
    193 O31        12.3530   -0.0250    1.3180 oh        1 MOL     -0.789539
    194 H89        12.9230   -0.6360    0.8660 ho        1 MOL      0.340765
    195 H90        11.7860   -0.5870    1.8620 ho        1 MOL      0.340765
@<TRIPOS>BOND
     1    1    2 1   
     2    1    4 1   
     3    1    5 1   
     4    1    6 1   
     5    2    3 2   
     6    2    7 1   
     7    7    8 1   
     8    7   15 1   
     9    8    9 1   
    10    8   11 1   
    11    8   16 1   
    12    9   10 2   
    13    9   19 1   
    14   11   12 1   
    15   11   17 1   
    16   11   18 1   
    17   12   13 1   
    18   12   14 1   
    19   19   20 1   
    20   19   27 1   
    21   20   21 1   
    22   20   23 1   
    23   20   28 1   
    24   21   22 2   
    25   21   38 1   
    26   23   24 1   
    27   23   25 1   
    28   23   29 1   
    29   24   26 1   
    30   24   30 1   
    31   24   31 1   
    32   25   32 1   
    33   25   33 1   
    34   25   34 1   
    35   26   35 1   
    36   26   36 1   
    37   26   37 1   
    38   38   39 1   
    39   38   46 1   
    40   39   40 1   
    41   39   42 1   
    42   39   47 1   
    43   40   41 2   
    44   40   50 1   
    45   42   43 1   
    46   42   48 1   
    47   42   49 1   
    48   43   44 1   
    49   43   45 1   
    50   50   51 1   
    51   50   54 1   
    52   51   52 1   
    53   51   55 1   
    54   51   56 1   
    55   52   53 2   
    56   52   57 1   
    57   57   58 1   
    58   57   65 1   
    59   58   59 1   
    60   58   61 1   
    61   58   66 1   
    62   59   60 2   
    63   59   69 1   
    64   61   62 1   
    65   61   67 1   
    66   61   68 1   
    67   62   63 1   
    68   62   64 1   
    69   69   70 1   
    70   69   73 1   
    71   70   71 1   
    72   70   74 1   
    73   70   75 1   
    74   71   72 2   
    75   71   76 1   
    76   76   77 1   
    77   76   85 1   
    78   77   78 1   
    79   77   80 1   
    80   77   86 1   
    81   78   79 2   
    82   78   93 1   
    83   80   81 1   
    84   80   87 1   
    85   80   88 1   
    86   81   82 1   
    87   81   89 1   
    88   81   90 1   
    89   82   83 1   
    90   82   84 2   
    91   83   91 1   
    92   83   92 1   
    93   93   94 1   
    94   93  100 1   
    95   94   95 1   
    96   94   97 1   
    97   94  101 1   
    98   95   96 2   
    99   95  109 1   
   100   97   98 1   
   101   97   99 1   
   102   97  102 1   
   103   98  103 1   
   104   98  104 1   
   105   98  105 1   
   106   99  106 1   
   107   99  107 1   
   108   99  108 1   
   109  109  110 1   
   110  109  117 1   
   111  110  111 1   
   112  110  113 1   
   113  110  118 1   
   114  111  112 2   
   115  111  123 1   
   116  113  114 1   
   117  113  119 1   
   118  113  120 1   
   119  114  115 1   
   120  114  116 2   
   121  115  121 1   
   122  115  122 1   
   123  123  124 1   
   124  123  135 1   
   125  124  125 1   
   126  124  127 1   
   127  124  136 1   
   128  125  126 2   
   129  125  144 1   
   130  127  128 1   
   131  127  137 1   
   132  127  138 1   
   133  128  129 ar  
   134  128  130 ar  
   135  129  131 ar  
   136  129  139 1   
   137  130  132 ar  
   138  130  140 1   
   139  131  133 ar  
   140  131  141 1   
   141  132  133 ar  
   142  132  142 1   
   143  133  134 1   
   144  134  143 1   
   145  144  145 1   
   146  144  153 1   
   147  145  146 1   
   148  145  148 1   
   149  145  154 1   
   150  146  147 2   
   151  146  159 1   
   152  148  149 1   
   153  148  155 1   
   154  148  156 1   
   155  149  150 1   
   156  149  157 1   
   157  149  158 1   
   158  150  151 1   
   159  150  152 1   
   160  159  160 1   
   161  159  168 1   
   162  160  161 1   
   163  160  163 1   
   164  160  169 1   
   165  161  162 2   
   166  161  174 1   
   167  163  164 1   
   168  163  170 1   
   169  163  171 1   
   170  164  165 1   
   171  164  172 1   
   172  164  173 1   
   173  165  166 1   
   174  165  167 1   
   175  174  175 1   
   176  174  179 1   
   177  175  176 1   
   178  175  177 1   
   179  175  178 1   
   180  181  182 1   
   181  181  183 1   
   182  184  185 1   
   183  184  186 1   
   184  187  188 1   
   185  187  189 1   
   186  190  191 1   
   187  190  192 1   
   188  193  194 1   
   189  193  195 1   
@<TRIPOS>SUBSTRUCTURE
     1 MOL         1 TEMP              0 ****  ****    0 ROOT
