@<TRIPOS>MOLECULE
MOL
  178   175     1     0     0
SMALL
resp


@<TRIPOS>ATOM
      1 C1          2.1130   -3.7320    3.7620 c3        1 MOL     -0.273907
      2 C2          3.5770   -3.2960    3.3390 c         1 MOL      0.527932
      3 O1          3.9270   -2.2060    2.8420 o         1 MOL     -0.575321
      4 H1          1.8820   -4.7020    3.3220 hc        1 MOL      0.084688
      5 H2          2.0540   -3.8030    4.8490 hc        1 MOL      0.084688
      6 H3          1.3960   -2.9920    3.4060 hc        1 MOL      0.084688
      7 N1          4.5630   -4.1810    3.3880 n         1 MOL     -0.301663
      8 C3          5.9900   -4.0190    2.9380 c3        1 MOL     -0.202326
      9 C4          6.0920   -3.7900    1.4340 c         1 MOL      0.775163
     10 O2          5.3720   -4.5450    0.7290 o         1 MOL     -0.582269
     11 C5          6.6780   -5.2480    3.4140 c3        1 MOL     -0.245327
     12 C6          8.1420   -5.4450    2.8870 c         1 MOL      0.768016
     13 O3          9.0400   -4.5770    3.1770 o         1 MOL     -0.735540
     14 O4          8.4540   -6.5370    2.3720 o         1 MOL     -0.735540
     15 H4          4.2990   -5.0810    3.7530 hn        1 MOL      0.232680
     16 H5          6.3370   -3.1260    3.4640 h1        1 MOL      0.129613
     17 H6          6.0390   -6.1000    3.1760 hc        1 MOL      0.051442
     18 H7          6.7000   -5.2390    4.5100 hc        1 MOL      0.051442
     19 N2          6.8570   -2.8240    0.9170 n         1 MOL     -0.607360
     20 C7          6.9140   -2.5380   -0.5410 c3        1 MOL      0.274332
     21 C8          5.9660   -1.4270   -1.0240 c         1 MOL      0.563786
     22 O5          5.7190   -0.4810   -0.2770 o         1 MOL     -0.558610
     23 C9          8.4220   -2.3260   -0.7540 c3        1 MOL     -0.264840
     24 H8          7.3110   -2.1480    1.5170 hn        1 MOL      0.309190
     25 H9          6.6880   -3.4710   -1.0650 h1        1 MOL      0.041097
     26 H10         8.6280   -1.8500   -1.7100 hc        1 MOL      0.068961
     27 H11         8.8710   -1.6850    0.0160 hc        1 MOL      0.068961
     28 H12         8.9500   -3.2700   -0.6950 hc        1 MOL      0.068961
     29 N3          5.4110   -1.4840   -2.2270 n         1 MOL     -0.454766
     30 C10         4.4880   -0.4780   -2.7820 c3        1 MOL     -0.043058
     31 C11         5.3700    0.6540   -3.3430 c         1 MOL      0.578990
     32 O6          6.4260    0.3970   -3.9580 o         1 MOL     -0.532950
     33 C12         3.5070   -1.1490   -3.8280 c3        1 MOL      0.013677
     34 C13         2.6980   -2.3180   -3.3610 c         1 MOL      0.656870
     35 O7          3.2360   -3.3820   -2.9400 o         1 MOL     -0.718952
     36 O8          1.5060   -2.1540   -3.2360 o         1 MOL     -0.718952
     37 H13         5.5830   -2.2940   -2.8080 hn        1 MOL      0.254786
     38 H14         3.9450   -0.0310   -1.9510 h1        1 MOL      0.134932
     39 H15         4.1210   -1.5150   -4.6420 hc        1 MOL     -0.010246
     40 H16         2.8860   -0.4050   -4.3290 hc        1 MOL     -0.010246
     41 N4          4.9560    1.8940   -3.1070 n         1 MOL     -0.499268
     42 C14         5.9540    3.0200   -3.1890 c3        1 MOL     -0.107343
     43 C15         5.4280    4.3720   -3.0100 c         1 MOL      0.555170
     44 O9          6.1520    5.3590   -3.0300 o         1 MOL     -0.591396
     45 H17         4.0670    2.0040   -2.6500 hn        1 MOL      0.268879
     46 H18         6.4930    2.9660   -4.1380 h1        1 MOL      0.118217
     47 H19         6.6550    2.8260   -2.3790 h1        1 MOL      0.118217
     48 N5          4.1820    4.5630   -2.7540 n         1 MOL     -0.348596
     49 C16         3.4930    5.8150   -2.4650 c3        1 MOL      0.352264
     50 C17         2.9230    5.7540   -1.0560 c         1 MOL      0.418899
     51 O10         2.5520    4.6430   -0.6050 o         1 MOL     -0.433666
     52 C18         2.5050    6.2480   -3.5720 c3        1 MOL     -0.404472
     53 C19         3.1250    6.5020   -4.9140 c         1 MOL      0.741581
     54 N6          3.3310    5.5070   -5.6930 n         1 MOL     -0.800863
     55 O11         3.4950    7.6130   -5.3010 o         1 MOL     -0.590447
     56 H20         3.5820    3.7620   -2.6880 hn        1 MOL      0.204977
     57 H21         4.2270    6.6090   -2.4350 h1        1 MOL     -0.002413
     58 H22         2.0850    7.1820   -3.2160 hc        1 MOL      0.098405
     59 H23         1.7030    5.5190   -3.6850 hc        1 MOL      0.098405
     60 H24         3.0300    4.5840   -5.4070 hn        1 MOL      0.371896
     61 H25         3.9750    5.6360   -6.4500 hn        1 MOL      0.371896
     62 N7          2.8000    6.9560   -0.3820 n         1 MOL     -0.544229
     63 C20         2.3880    6.9560    1.0080 c3        1 MOL      0.114132
     64 C21         0.9060    6.7630    1.3030 c         1 MOL      0.397184
     65 O12         0.0640    6.5540    0.4020 o         1 MOL     -0.438785
     66 H26         3.1190    7.7800   -0.8490 hn        1 MOL      0.339562
     67 H27         2.6770    7.8770    1.5000 h1        1 MOL      0.047358
     68 H28         2.9510    6.2220    1.5780 h1        1 MOL      0.047358
     69 N8          0.5160    6.6650    2.6130 n         1 MOL     -0.322068
     70 C22        -0.8690    6.9020    3.1120 c3        1 MOL     -0.186467
     71 C23        -1.7670    5.6470    3.1400 c         1 MOL      0.493955
     72 O13        -2.9850    5.8720    3.0210 o         1 MOL     -0.570428
     73 C24        -0.8280    7.8260    4.3880 c3        1 MOL      0.414955
     74 C25        -0.3200    7.1160    5.6420 c3        1 MOL     -0.237717
     75 O14        -0.1210    9.0160    4.1440 oh        1 MOL     -0.653662
     76 H29         1.2990    6.7750    3.2470 hn        1 MOL      0.216558
     77 H30        -1.4180    7.4930    2.3830 h1        1 MOL      0.137194
     78 H31        -1.8830    7.9950    4.5780 h1        1 MOL      0.041200
     79 H32         0.8090    8.9190    3.9260 ho        1 MOL      0.391288
     80 H33        -0.8910    6.1960    5.7020 hc        1 MOL      0.051399
     81 H34         0.7500    6.9110    5.6790 hc        1 MOL      0.051399
     82 H35        -0.5770    7.6410    6.5700 hc        1 MOL      0.051399
     83 N9         -1.2190    4.4600    3.1340 n         1 MOL     -0.140826
     84 C26        -1.9490    3.2130    3.0870 c3        1 MOL     -0.129816
     85 C27        -1.3890    2.2540    2.0390 c         1 MOL      0.527613
     86 O15        -0.2840    2.3810    1.5750 o         1 MOL     -0.475874
     87 C28        -2.0370    2.5210    4.4750 c3        1 MOL      0.206961
     88 C29        -0.7160    2.3220    5.1260 c3        1 MOL      0.198449
     89 C30        -2.9460    3.3230    5.3940 c3        1 MOL     -0.357610
     90 C31        -0.7350    1.1510    6.1560 c3        1 MOL     -0.205810
     91 H36        -0.2270    4.4880    3.3290 hn        1 MOL      0.129076
     92 H37        -2.9670    3.4660    2.7940 h1        1 MOL      0.107820
     93 H38        -2.4500    1.5120    4.3820 hc        1 MOL     -0.019145
     94 H39        -0.3900    3.2360    5.6360 hc        1 MOL     -0.025388
     95 H40         0.0770    2.0730    4.4270 hc        1 MOL     -0.025388
     96 H41        -2.3710    4.1380    5.8380 hc        1 MOL      0.073548
     97 H42        -3.8360    3.6230    4.8510 hc        1 MOL      0.073548
     98 H43        -3.1640    2.6870    6.2530 hc        1 MOL      0.073548
     99 H44         0.2830    0.9890    6.5150 hc        1 MOL      0.039391
    100 H45        -1.3230    1.5150    6.9980 hc        1 MOL      0.039391
    101 H46        -1.0930    0.2430    5.6630 hc        1 MOL      0.039391
    102 N10        -2.2690    1.3090    1.6870 n         1 MOL     -0.570785
    103 C32        -2.1280    0.2090    0.7290 c3        1 MOL      0.381473
    104 C33        -3.3880   -0.1120   -0.0850 c         1 MOL      0.334117
    105 O16        -3.4950   -1.1960   -0.6620 o         1 MOL     -0.410223
    106 C34        -1.4870   -1.0450    1.4000 c3        1 MOL     -0.324830
    107 C35        -0.7290   -2.0310    0.4730 c         1 MOL      0.766118
    108 O17        -0.3830   -3.1980    0.8720 o         1 MOL     -0.736072
    109 O18        -0.2000   -1.6920   -0.6430 o         1 MOL     -0.736072
    110 H47        -3.1320    1.3970    2.1950 hn        1 MOL      0.266431
    111 H48        -1.3860    0.5360    0.0110 h1        1 MOL      0.033442
    112 H49        -2.3210   -1.5490    1.8740 hc        1 MOL      0.081734
    113 H50        -0.7230   -0.7490    2.1220 hc        1 MOL      0.081734
    114 N11        -4.3770    0.7760   -0.2850 n         1 MOL     -0.381749
    115 C36        -5.5100    0.5460   -1.1760 c3        1 MOL      0.250095
    116 C37        -6.2400   -0.7930   -0.7200 c         1 MOL      0.209137
    117 O19        -6.6540   -0.9190    0.4390 o         1 MOL     -0.489559
    118 C38        -6.3730    1.7000   -0.9910 c3        1 MOL     -0.319974
    119 C39        -7.5420    1.6870   -1.9830 ca        1 MOL      0.223971
    120 C40        -7.3940    2.5780   -3.1490 ca        1 MOL     -0.305687
    121 C41        -8.6990    0.8590   -1.8450 ca        1 MOL     -0.305687
    122 C42        -8.4920    2.5880   -4.0370 ca        1 MOL     -0.000492
    123 C43        -9.7750    0.9090   -2.7780 ca        1 MOL     -0.000492
    124 C44        -9.6570    1.8280   -3.8720 ca        1 MOL     -0.242308
    125 H51        -4.1990    1.6790    0.1330 hn        1 MOL      0.213570
    126 H52        -5.1000    0.5290   -2.1900 h1        1 MOL      0.040146
    127 H53        -5.8310    2.6380   -1.1300 hc        1 MOL      0.118324
    128 H54        -6.8180    1.7780    0.0030 hc        1 MOL      0.118324
    129 H55        -6.5590    3.2380   -3.3300 ha        1 MOL      0.167477
    130 H56        -8.8510    0.3390   -0.9170 ha        1 MOL      0.167477
    131 H57        -8.4620    3.4000   -4.7470 ha        1 MOL      0.089829
    132 H58       -10.7150    0.3990   -2.6010 ha        1 MOL      0.089829
    133 H59       -10.5520    1.8900   -4.4930 ha        1 MOL      0.128324
    134 N12        -6.5340   -1.7300   -1.7110 n         1 MOL      0.124923
    135 C45        -7.4100   -2.8610   -1.5390 c3        1 MOL      0.131682
    136 C46        -6.8570   -3.8200   -0.4160 c         1 MOL      0.182001
    137 O20        -7.6410   -4.6210    0.2140 o         1 MOL     -0.544223
    138 C47        -7.5270   -3.4930   -2.9250 c3        1 MOL     -0.162615
    139 C48        -6.2200   -3.1030   -3.5780 c3        1 MOL      0.053302
    140 C49        -6.0290   -1.7280   -3.0460 c3        1 MOL     -0.320267
    141 H60        -8.3990   -2.5640   -1.1810 h1        1 MOL      0.030298
    142 H61        -7.6490   -4.5700   -2.9480 hc        1 MOL      0.058157
    143 H62        -8.2710   -2.8940   -3.4420 hc        1 MOL      0.058157
    144 H63        -5.4310   -3.7300   -3.1760 hc        1 MOL      0.028142
    145 H64        -6.3690   -3.0430   -4.6510 hc        1 MOL      0.028142
    146 H65        -5.0050   -1.3910   -3.2110 h1        1 MOL      0.107453
    147 H66        -6.6740   -0.9990   -3.5350 h1        1 MOL      0.107453
    148 N13        -5.5890   -3.8500   -0.1520 n         1 MOL      0.037736
    149 C50        -4.8400   -4.7850    0.7680 c3        1 MOL     -0.274704
    150 C51        -5.0520   -4.4070    2.2320 c         1 MOL      0.489056
    151 O21        -4.8690   -5.2460    3.0840 o         1 MOL     -0.541843
    152 C52        -3.3720   -4.6730    0.3440 c3        1 MOL      0.380159
    153 C53        -3.0730   -5.2180   -1.0670 c3        1 MOL     -0.359603
    154 C54        -1.6170   -5.0020   -1.4770 c         1 MOL      0.777869
    155 O22        -1.2900   -4.1420   -2.3090 o         1 MOL     -0.756081
    156 O23        -0.6620   -5.6520   -0.9510 o         1 MOL     -0.756081
    157 H67        -5.0490   -3.2750   -0.7820 hn        1 MOL      0.216811
    158 H68        -5.0010   -5.8500    0.5890 h1        1 MOL      0.139142
    159 H69        -2.7790   -5.0390    1.1770 hc        1 MOL     -0.067136
    160 H70        -3.2100   -3.5930    0.2770 hc        1 MOL     -0.067136
    161 H71        -3.7230   -4.5860   -1.6620 hc        1 MOL      0.042323
    162 H72        -3.4450   -6.2470   -1.0730 hc        1 MOL      0.042323
    163 N14        -5.4570   -3.2020    2.5950 n         1 MOL     -0.141573
    164 C55        -5.7000   -2.6790    3.9680 c3        1 MOL     -0.399183
    165 H73        -6.2850   -3.4040    4.5340 h1        1 MOL      0.140157
    166 H74        -4.7460   -2.5140    4.4690 h1        1 MOL      0.140157
    167 H75        -6.2470   -1.7380    3.9080 h1        1 MOL      0.140157
    168 H76        -5.6130   -2.5040    1.8770 hn        1 MOL      0.189201
    169 Ca1         1.1700   -3.7280   -1.2580 Ca        1 MOL      1.775412
    170 O24         2.8470   -5.2100    0.3120 oh        1 MOL     -0.863251
    171 H77         3.7220   -5.0330    0.6460 ho        1 MOL      0.409757
    172 H78         2.8810   -6.1190    0.0100 ho        1 MOL      0.409757
    173 O25         2.9130   -2.0130   -0.0010 oh        1 MOL     -0.863251
    174 H79         3.3950   -2.3370    0.7640 ho        1 MOL      0.409757
    175 H80         2.7410   -1.0910    0.1970 ho        1 MOL      0.409757
    176 O26         1.8100   -5.7940   -2.6900 oh        1 MOL     -0.863251
    177 H81         2.6350   -5.8850   -3.1720 ho        1 MOL      0.409757
    178 H82         1.1900   -6.3420   -3.1710 ho        1 MOL      0.409757
@<TRIPOS>BOND
     1    1    2 1   
     2    1    4 1   
     3    1    5 1   
     4    1    6 1   
     5    2    3 2   
     6    2    7 1   
     7    7    8 1   
     8    7   15 1   
     9    8    9 1   
    10    8   11 1   
    11    8   16 1   
    12    9   10 2   
    13    9   19 1   
    14   11   12 1   
    15   11   17 1   
    16   11   18 1   
    17   12   13 1   
    18   12   14 1   
    19   19   20 1   
    20   19   24 1   
    21   20   21 1   
    22   20   23 1   
    23   20   25 1   
    24   21   22 2   
    25   21   29 1   
    26   23   26 1   
    27   23   27 1   
    28   23   28 1   
    29   29   30 1   
    30   29   37 1   
    31   30   31 1   
    32   30   33 1   
    33   30   38 1   
    34   31   32 2   
    35   31   41 1   
    36   33   34 1   
    37   33   39 1   
    38   33   40 1   
    39   34   35 1   
    40   34   36 1   
    41   41   42 1   
    42   41   45 1   
    43   42   43 1   
    44   42   46 1   
    45   42   47 1   
    46   43   44 2   
    47   43   48 1   
    48   48   49 1   
    49   48   56 1   
    50   49   50 1   
    51   49   52 1   
    52   49   57 1   
    53   50   51 2   
    54   50   62 1   
    55   52   53 1   
    56   52   58 1   
    57   52   59 1   
    58   53   54 1   
    59   53   55 2   
    60   54   60 1   
    61   54   61 1   
    62   62   63 1   
    63   62   66 1   
    64   63   64 1   
    65   63   67 1   
    66   63   68 1   
    67   64   65 2   
    68   64   69 1   
    69   69   70 1   
    70   69   76 1   
    71   70   71 1   
    72   70   73 1   
    73   70   77 1   
    74   71   72 2   
    75   71   83 1   
    76   73   74 1   
    77   73   75 1   
    78   73   78 1   
    79   74   80 1   
    80   74   81 1   
    81   74   82 1   
    82   75   79 1   
    83   83   84 1   
    84   83   91 1   
    85   84   85 1   
    86   84   87 1   
    87   84   92 1   
    88   85   86 2   
    89   85  102 1   
    90   87   88 1   
    91   87   89 1   
    92   87   93 1   
    93   88   90 1   
    94   88   94 1   
    95   88   95 1   
    96   89   96 1   
    97   89   97 1   
    98   89   98 1   
    99   90   99 1   
   100   90  100 1   
   101   90  101 1   
   102  102  103 1   
   103  102  110 1   
   104  103  104 1   
   105  103  106 1   
   106  103  111 1   
   107  104  105 2   
   108  104  114 1   
   109  106  107 1   
   110  106  112 1   
   111  106  113 1   
   112  107  108 1   
   113  107  109 1   
   114  114  115 1   
   115  114  125 1   
   116  115  116 1   
   117  115  118 1   
   118  115  126 1   
   119  116  117 2   
   120  116  134 1   
   121  118  119 1   
   122  118  127 1   
   123  118  128 1   
   124  119  120 ar  
   125  119  121 ar  
   126  120  122 ar  
   127  120  129 1   
   128  121  123 ar  
   129  121  130 1   
   130  122  124 ar  
   131  122  131 1   
   132  123  124 ar  
   133  123  132 1   
   134  124  133 1   
   135  134  135 1   
   136  134  140 1   
   137  135  136 1   
   138  135  138 1   
   139  135  141 1   
   140  136  137 2   
   141  136  148 1   
   142  138  139 1   
   143  138  142 1   
   144  138  143 1   
   145  139  140 1   
   146  139  144 1   
   147  139  145 1   
   148  140  146 1   
   149  140  147 1   
   150  148  149 1   
   151  148  157 1   
   152  149  150 1   
   153  149  152 1   
   154  149  158 1   
   155  150  151 2   
   156  150  163 1   
   157  152  153 1   
   158  152  159 1   
   159  152  160 1   
   160  153  154 1   
   161  153  161 1   
   162  153  162 1   
   163  154  155 1   
   164  154  156 1   
   165  163  164 1   
   166  163  168 1   
   167  164  165 1   
   168  164  166 1   
   169  164  167 1   
   170  170  171 1   
   171  170  172 1   
   172  173  174 1   
   173  173  175 1   
   174  176  177 1   
   175  176  178 1   
@<TRIPOS>SUBSTRUCTURE
     1 MOL         1 TEMP              0 ****  ****    0 ROOT
