@<TRIPOS>MOLECULE
MOL
  192   187     1     0     0
SMALL
resp


@<TRIPOS>ATOM
      1 C1          4.1070   -2.4730   -2.3100 c3        1 MOL     -0.430419
      2 C2          3.0140   -2.9280   -1.3110 c         1 MOL      0.714653
      3 O1          2.2850   -2.1420   -0.7650 o         1 MOL     -0.524139
      4 H1          3.6640   -2.3420   -3.2980 hc        1 MOL      0.090262
      5 H2          4.5340   -1.5280   -1.9760 hc        1 MOL      0.090262
      6 H3          4.8910   -3.2290   -2.3600 hc        1 MOL      0.090262
      7 N1          3.0640   -4.2180   -0.9670 n         1 MOL     -0.255017
      8 C3          2.1350   -4.9260    0.0160 c3        1 MOL     -0.293760
      9 C4          0.6120   -4.5700   -0.2400 c         1 MOL      0.716750
     10 O2         -0.2020   -4.2710    0.6990 o         1 MOL     -0.572112
     11 C5          2.5710   -4.7040    1.4400 c3        1 MOL     -0.127682
     12 C6          4.0910   -4.7710    1.7170 c         1 MOL      0.753127
     13 O3          4.5670   -3.9260    2.5080 o         1 MOL     -0.763182
     14 O4          4.8080   -5.6730    1.1760 o         1 MOL     -0.763182
     15 H4          3.8190   -4.7880   -1.3080 hn        1 MOL      0.194008
     16 H5          2.1400   -5.9970   -0.1800 h1        1 MOL      0.136310
     17 H6          2.0510   -5.4100    2.0760 hc        1 MOL      0.088841
     18 H7          2.2360   -3.7470    1.8300 hc        1 MOL      0.088841
     19 N2          0.2200   -4.4620   -1.4940 n         1 MOL     -0.504070
     20 C7         -1.1610   -4.3010   -2.0170 c3        1 MOL     -0.175377
     21 C8         -2.1560   -5.4020   -1.4590 c         1 MOL      0.740843
     22 O5         -1.7030   -6.5020   -1.2700 o         1 MOL     -0.581757
     23 C9         -1.1030   -4.3990   -3.5870 c3        1 MOL     -0.056726
     24 C10        -0.7040   -5.8260   -4.1190 c3        1 MOL     -0.041348
     25 C11        -0.1290   -3.3340   -4.1270 c3        1 MOL     -0.142422
     26 C12        -0.8090   -6.0810   -5.6370 c3        1 MOL     -0.062415
     27 H8          0.9420   -4.8130   -2.0990 hn        1 MOL      0.224085
     28 H9         -1.5150   -3.3110   -1.7340 h1        1 MOL      0.178278
     29 H10        -2.1160   -4.1820   -3.9080 hc        1 MOL      0.126096
     30 H11        -1.2160   -6.6450   -3.6170 hc        1 MOL      0.044919
     31 H12         0.3020   -6.0730   -3.7770 hc        1 MOL      0.044919
     32 H13         0.9200   -3.5970   -3.9790 hc        1 MOL      0.048217
     33 H14        -0.2780   -3.1780   -5.1890 hc        1 MOL      0.048217
     34 H15        -0.4190   -2.3770   -3.6780 hc        1 MOL      0.048217
     35 H16        -0.3390   -5.2860   -6.2050 hc        1 MOL      0.006119
     36 H17        -0.2010   -6.9590   -5.8620 hc        1 MOL      0.006119
     37 H18        -1.8290   -6.1810   -6.0000 hc        1 MOL      0.006119
     38 N3         -3.4680   -5.1540   -1.2340 n         1 MOL     -0.672198
     39 C13        -4.3300   -4.0680   -1.6040 c3        1 MOL      0.084748
     40 C14        -5.4180   -3.7410   -0.5210 c         1 MOL      0.513582
     41 O6         -6.3760   -2.9110   -0.7390 o         1 MOL     -0.493994
     42 C15        -4.9400   -4.3750   -2.9710 c3        1 MOL      0.024729
     43 C16        -5.7310   -5.6470   -3.0990 c         1 MOL      0.698085
     44 O7         -6.3690   -5.8920   -4.1290 o         1 MOL     -0.714719
     45 O8         -5.9140   -6.3530   -2.0690 o         1 MOL     -0.714719
     46 H19        -4.0660   -5.8950   -0.9040 hn        1 MOL      0.309539
     47 H20        -3.7570   -3.1420   -1.6550 h1        1 MOL      0.019403
     48 H21        -4.1340   -4.3650   -3.7070 hc        1 MOL     -0.029830
     49 H22        -5.5170   -3.5010   -3.2990 hc        1 MOL     -0.029830
     50 N4         -5.2410   -4.3660    0.6980 n         1 MOL     -0.375740
     51 C17        -6.3870   -4.6600    1.5550 c3        1 MOL     -0.175208
     52 C18        -6.8620   -3.4820    2.4870 c         1 MOL      0.433462
     53 O9         -7.9890   -3.4580    2.9410 o         1 MOL     -0.546736
     54 H23        -4.4190   -4.8900    0.9650 hn        1 MOL      0.318828
     55 H24        -6.0860   -5.4770    2.2080 h1        1 MOL      0.115223
     56 H25        -7.2360   -5.0140    0.9740 h1        1 MOL      0.115223
     57 N5         -6.0720   -2.4180    2.5770 n         1 MOL     -0.237186
     58 C19        -6.4570   -1.1540    3.2130 c3        1 MOL     -0.045180
     59 C20        -7.4260   -0.3740    2.3760 c         1 MOL      0.465959
     60 O10        -8.2950    0.3440    2.9630 o         1 MOL     -0.593567
     61 C21        -5.1990   -0.4120    3.4040 c3        1 MOL     -0.125212
     62 C22        -4.2280   -0.0090    2.3260 c         1 MOL      0.728018
     63 O11        -4.5350   -0.0860    1.1090 o         1 MOL     -0.696102
     64 O12        -3.1390    0.4450    2.6790 o         1 MOL     -0.696102
     65 H26        -5.1440   -2.3830    2.1860 hn        1 MOL      0.167216
     66 H27        -6.9260   -1.3490    4.1810 h1        1 MOL      0.088497
     67 H28        -4.5880   -1.0970    4.0010 hc        1 MOL      0.023726
     68 H29        -5.2910    0.4140    4.1190 hc        1 MOL      0.023726
     69 N6         -7.3700   -0.4540    1.0280 n         1 MOL     -0.071005
     70 C23        -8.0990    0.3820    0.0870 c3        1 MOL     -0.310407
     71 C24        -7.6570    1.8780   -0.0430 c         1 MOL      0.656214
     72 O13        -8.1720    2.5900   -0.9400 o         1 MOL     -0.617344
     73 H30        -6.6710   -1.0400    0.5960 hn        1 MOL      0.182733
     74 H31        -9.1210    0.4350    0.4760 h1        1 MOL      0.118371
     75 H32        -8.1060    0.0050   -0.9280 h1        1 MOL      0.118371
     76 N7         -6.6270    2.2300    0.7530 n         1 MOL     -0.238524
     77 C25        -6.1320    3.5840    1.0280 c3        1 MOL     -0.018431
     78 C26        -5.7690    4.4300   -0.1730 c         1 MOL      0.596577
     79 O14        -5.7830    5.6490   -0.0280 o         1 MOL     -0.546401
     80 C27        -6.9040    4.2350    2.1960 c3        1 MOL      0.150457
     81 C28        -6.6840    3.5440    3.5480 c3        1 MOL     -0.196117
     82 C29        -7.6930    4.0660    4.5810 c         1 MOL      0.644701
     83 N8         -8.9880    3.7700    4.5080 n         1 MOL     -0.790856
     84 O15        -7.2480    4.6910    5.5130 o         1 MOL     -0.586150
     85 H33        -6.1070    1.4590    1.1560 hn        1 MOL      0.120296
     86 H34        -5.1280    3.4910    1.4620 h1        1 MOL      0.109166
     87 H35        -7.9520    4.1040    1.9010 hc        1 MOL     -0.045467
     88 H36        -6.6820    5.3020    2.2070 hc        1 MOL     -0.045467
     89 H37        -5.6620    3.6530    3.9210 hc        1 MOL      0.072006
     90 H38        -6.8490    2.4860    3.3830 hc        1 MOL      0.072006
     91 H39        -9.2960    3.0870    3.8170 hn        1 MOL      0.355971
     92 H40        -9.6530    4.2710    5.0730 hn        1 MOL      0.355971
     93 N9         -5.3040    3.8550   -1.2560 n         1 MOL     -0.499553
     94 C30        -4.7520    4.5890   -2.4270 c3        1 MOL     -0.142674
     95 C31        -3.2480    4.3390   -2.6600 c         1 MOL      0.719311
     96 O16        -2.5660    5.1460   -3.2530 o         1 MOL     -0.579209
     97 C32        -5.6360    4.3310   -3.6620 c3        1 MOL      0.308909
     98 C33        -5.5970    2.8830   -4.0210 c3        1 MOL     -0.358481
     99 C34        -7.1180    4.7260   -3.4750 c3        1 MOL     -0.358481
    100 H41        -5.3860    2.8540   -1.2470 hn        1 MOL      0.271365
    101 H42        -4.8280    5.6600   -2.2130 h1        1 MOL      0.097951
    102 H43        -5.1580    4.8720   -4.4770 hc        1 MOL     -0.041602
    103 H44        -6.0540    2.7830   -4.9990 hc        1 MOL      0.088824
    104 H45        -4.5890    2.4640   -4.0340 hc        1 MOL      0.088824
    105 H46        -6.2010    2.3140   -3.3170 hc        1 MOL      0.088824
    106 H47        -7.7190    4.0470   -2.8750 hc        1 MOL      0.088824
    107 H48        -7.2410    5.7260   -3.0310 hc        1 MOL      0.088824
    108 H49        -7.5640    4.7880   -4.4610 hc        1 MOL      0.088824
    109 N10        -2.7600    3.1510   -2.1850 n         1 MOL     -0.539924
    110 C35        -1.3940    2.5540   -2.2160 c3        1 MOL      0.145260
    111 C36        -0.4660    2.9030   -1.0400 c         1 MOL      0.574486
    112 O17        -0.9080    3.1010    0.1010 o         1 MOL     -0.555844
    113 C37        -1.5220    1.0380   -2.4680 c3        1 MOL     -0.143995
    114 C38        -0.2070    0.2340   -2.6170 c         1 MOL      0.475678
    115 N11        -0.0310   -0.6500   -1.6660 n         1 MOL     -0.591126
    116 O18         0.5900    0.3740   -3.5550 o         1 MOL     -0.563471
    117 H50        -3.5270    2.5980   -1.8050 hn        1 MOL      0.269593
    118 H51        -0.8260    2.9970   -3.0400 h1        1 MOL      0.032079
    119 H52        -2.1480    0.8400   -3.3360 hc        1 MOL      0.071102
    120 H53        -2.1280    0.6560   -1.6430 hc        1 MOL      0.071102
    121 H54        -0.6770   -0.8350   -0.9120 hn        1 MOL      0.325371
    122 H55         0.8150   -1.1910   -1.7200 hn        1 MOL      0.325371
    123 N12         0.7990    2.7760   -1.2510 n         1 MOL     -0.511818
    124 C39         1.7670    3.0550   -0.2670 c3        1 MOL      0.309334
    125 C40         3.1710    3.5660   -0.8910 c         1 MOL      0.465261
    126 O19         3.4320    3.3540   -2.0630 o         1 MOL     -0.540774
    127 C41         1.9910    1.7940    0.6750 c3        1 MOL     -0.029165
    128 C42         2.4710    2.0500    2.1240 ca        1 MOL     -0.087103
    129 C43         3.8040    1.9570    2.5440 ca        1 MOL     -0.118911
    130 C44         1.4730    2.4140    3.0680 ca        1 MOL     -0.118911
    131 C45         4.1400    2.2620    3.8740 ca        1 MOL     -0.177847
    132 C46         1.7770    2.8000    4.3570 ca        1 MOL     -0.177847
    133 C47         3.1570    2.8410    4.7450 ca        1 MOL      0.201277
    134 O20         3.3220    3.1930    6.0330 oh        1 MOL     -0.465289
    135 H56         1.1330    2.5810   -2.1870 hn        1 MOL      0.281933
    136 H57         1.4150    3.8830    0.3520 h1        1 MOL      0.002683
    137 H58         2.5260    1.0110    0.1450 hc        1 MOL      0.060103
    138 H59         1.0220    1.2750    0.7430 hc        1 MOL      0.060103
    139 H60         4.6030    1.6710    1.8760 ha        1 MOL      0.159762
    140 H61         0.4220    2.4380    2.8130 ha        1 MOL      0.159762
    141 H62         5.1520    2.1110    4.2420 ha        1 MOL      0.121845
    142 H63         1.0470    3.1190    5.0950 ha        1 MOL      0.121845
    143 H64         4.2250    3.2160    6.3500 ho        1 MOL      0.355991
    144 N13         4.0630    4.0820   -0.0370 n         1 MOL     -0.649529
    145 C48         5.4790    4.3510   -0.3990 c3        1 MOL      0.470606
    146 C49         6.4880    3.7370    0.5670 c         1 MOL      0.375478
    147 O21         6.4660    4.1020    1.7500 o         1 MOL     -0.579191
    148 C50         5.7340    5.8440   -0.3880 c3        1 MOL     -0.037299
    149 C51         5.0650    6.6770   -1.5220 c3        1 MOL     -0.251588
    150 C52         5.6650    8.1060   -1.4170 c         1 MOL      0.694466
    151 O22         5.5240    8.8270   -0.3690 o         1 MOL     -0.691511
    152 O23         6.2250    8.5130   -2.4540 o         1 MOL     -0.691511
    153 H65         3.7140    4.1070    0.9080 hn        1 MOL      0.318922
    154 H66         5.6480    3.9690   -1.4030 h1        1 MOL     -0.029562
    155 H67         6.8040    6.0060   -0.4570 hc        1 MOL      0.033877
    156 H68         5.3680    6.2200    0.5720 hc        1 MOL      0.033877
    157 H69         3.9840    6.7400   -1.3680 hc        1 MOL      0.057061
    158 H70         5.2440    6.1560   -2.4550 hc        1 MOL      0.057061
    159 N14         7.3900    2.8120    0.1710 n         1 MOL     -0.435977
    160 C53         7.2630    2.0780   -1.1360 c3        1 MOL     -0.244889
    161 C54         8.0620    2.7820   -2.2120 c         1 MOL      0.653734
    162 O24         9.1410    3.3750   -1.9310 o         1 MOL     -0.532046
    163 C55         7.8060    0.6470   -0.8910 c3        1 MOL     -0.170437
    164 C56         6.9000   -0.2260   -0.0160 c3        1 MOL      0.206582
    165 C57         7.1730   -1.7830    0.1600 c         1 MOL      0.845719
    166 O25         6.1770   -2.4590    0.4980 o         1 MOL     -0.843388
    167 O26         8.3340   -2.2720    0.1170 o         1 MOL     -0.843388
    168 H71         7.9740    2.4360    0.9060 hn        1 MOL      0.338298
    169 H72         6.2310    2.0280   -1.4950 h1        1 MOL      0.165398
    170 H73         8.7780    0.7560   -0.4350 hc        1 MOL      0.048590
    171 H74         7.8770    0.0330   -1.7860 hc        1 MOL      0.048590
    172 H75         5.9190   -0.1430   -0.4760 hc        1 MOL     -0.048226
    173 H76         6.8550    0.1200    1.0110 hc        1 MOL     -0.048226
    174 N15         7.6650    2.5940   -3.4690 n         1 MOL     -0.425492
    175 C58         7.9640    3.4800   -4.5910 c3        1 MOL     -0.209766
    176 H77         7.5310    3.0680   -5.5040 h1        1 MOL      0.106828
    177 H78         7.5390    4.4650   -4.4010 h1        1 MOL      0.106828
    178 H79         9.0440    3.5660   -4.7100 h1        1 MOL      0.106828
    179 H80         6.7930    2.1230   -3.6510 hn        1 MOL      0.306569
    180 Ca1         7.0600   -4.4080    1.8470 Ca        1 MOL      1.632201
    181 O27         7.6950   -6.8760    2.6620 oh        1 MOL     -0.769790
    182 H81         7.5030   -7.1890    3.5430 ho        1 MOL      0.377889
    183 H82         8.4350   -7.4070    2.3760 ho        1 MOL      0.377889
    184 O28         6.5940   -4.7810    4.6070 oh        1 MOL     -0.769790
    185 H83         5.8050   -4.2580    4.7830 ho        1 MOL      0.377889
    186 H84         6.8690   -5.0910    5.4670 ho        1 MOL      0.377889
    187 O29         7.0970   -2.0500    3.1280 oh        1 MOL     -0.769790
    188 H85         6.2680   -1.5730    3.1680 ho        1 MOL      0.377889
    189 H86         7.6390   -1.6550    3.8170 ho        1 MOL      0.377889
    190 O30         9.4750   -4.5170    3.1670 oh        1 MOL     -0.769790
    191 H87        10.1770   -3.8740    3.0950 ho        1 MOL      0.377889
    192 H88         9.9070   -5.3710    3.0920 ho        1 MOL      0.377889
@<TRIPOS>BOND
     1    1    2 1   
     2    1    4 1   
     3    1    5 1   
     4    1    6 1   
     5    2    3 2   
     6    2    7 1   
     7    7    8 1   
     8    7   15 1   
     9    8    9 1   
    10    8   11 1   
    11    8   16 1   
    12    9   10 2   
    13    9   19 1   
    14   11   12 1   
    15   11   17 1   
    16   11   18 1   
    17   12   13 1   
    18   12   14 1   
    19   19   20 1   
    20   19   27 1   
    21   20   21 1   
    22   20   23 1   
    23   20   28 1   
    24   21   22 2   
    25   21   38 1   
    26   23   24 1   
    27   23   25 1   
    28   23   29 1   
    29   24   26 1   
    30   24   30 1   
    31   24   31 1   
    32   25   32 1   
    33   25   33 1   
    34   25   34 1   
    35   26   35 1   
    36   26   36 1   
    37   26   37 1   
    38   38   39 1   
    39   38   46 1   
    40   39   40 1   
    41   39   42 1   
    42   39   47 1   
    43   40   41 2   
    44   40   50 1   
    45   42   43 1   
    46   42   48 1   
    47   42   49 1   
    48   43   44 1   
    49   43   45 1   
    50   50   51 1   
    51   50   54 1   
    52   51   52 1   
    53   51   55 1   
    54   51   56 1   
    55   52   53 2   
    56   52   57 1   
    57   57   58 1   
    58   57   65 1   
    59   58   59 1   
    60   58   61 1   
    61   58   66 1   
    62   59   60 2   
    63   59   69 1   
    64   61   62 1   
    65   61   67 1   
    66   61   68 1   
    67   62   63 1   
    68   62   64 1   
    69   69   70 1   
    70   69   73 1   
    71   70   71 1   
    72   70   74 1   
    73   70   75 1   
    74   71   72 2   
    75   71   76 1   
    76   76   77 1   
    77   76   85 1   
    78   77   78 1   
    79   77   80 1   
    80   77   86 1   
    81   78   79 2   
    82   78   93 1   
    83   80   81 1   
    84   80   87 1   
    85   80   88 1   
    86   81   82 1   
    87   81   89 1   
    88   81   90 1   
    89   82   83 1   
    90   82   84 2   
    91   83   91 1   
    92   83   92 1   
    93   93   94 1   
    94   93  100 1   
    95   94   95 1   
    96   94   97 1   
    97   94  101 1   
    98   95   96 2   
    99   95  109 1   
   100   97   98 1   
   101   97   99 1   
   102   97  102 1   
   103   98  103 1   
   104   98  104 1   
   105   98  105 1   
   106   99  106 1   
   107   99  107 1   
   108   99  108 1   
   109  109  110 1   
   110  109  117 1   
   111  110  111 1   
   112  110  113 1   
   113  110  118 1   
   114  111  112 2   
   115  111  123 1   
   116  113  114 1   
   117  113  119 1   
   118  113  120 1   
   119  114  115 1   
   120  114  116 2   
   121  115  121 1   
   122  115  122 1   
   123  123  124 1   
   124  123  135 1   
   125  124  125 1   
   126  124  127 1   
   127  124  136 1   
   128  125  126 2   
   129  125  144 1   
   130  127  128 1   
   131  127  137 1   
   132  127  138 1   
   133  128  129 ar  
   134  128  130 ar  
   135  129  131 ar  
   136  129  139 1   
   137  130  132 ar  
   138  130  140 1   
   139  131  133 ar  
   140  131  141 1   
   141  132  133 ar  
   142  132  142 1   
   143  133  134 1   
   144  134  143 1   
   145  144  145 1   
   146  144  153 1   
   147  145  146 1   
   148  145  148 1   
   149  145  154 1   
   150  146  147 2   
   151  146  159 1   
   152  148  149 1   
   153  148  155 1   
   154  148  156 1   
   155  149  150 1   
   156  149  157 1   
   157  149  158 1   
   158  150  151 1   
   159  150  152 1   
   160  159  160 1   
   161  159  168 1   
   162  160  161 1   
   163  160  163 1   
   164  160  169 1   
   165  161  162 2   
   166  161  174 1   
   167  163  164 1   
   168  163  170 1   
   169  163  171 1   
   170  164  165 1   
   171  164  172 1   
   172  164  173 1   
   173  165  166 1   
   174  165  167 1   
   175  174  175 1   
   176  174  179 1   
   177  175  176 1   
   178  175  177 1   
   179  175  178 1   
   180  181  182 1   
   181  181  183 1   
   182  184  185 1   
   183  184  186 1   
   184  187  188 1   
   185  187  189 1   
   186  190  191 1   
   187  190  192 1   
@<TRIPOS>SUBSTRUCTURE
     1 MOL         1 TEMP              0 ****  ****    0 ROOT
