@<TRIPOS>MOLECULE
MOL
  181   177     1     0     0
SMALL
resp


@<TRIPOS>ATOM
      1 C1          1.4660    5.8660   -2.6760 c3        1 MOL     -0.516407
      2 C2          2.8830    5.9300   -2.0020 c         1 MOL      0.653207
      3 O1          2.9750    6.2880   -0.8190 o         1 MOL     -0.538305
      4 H1          0.8530    5.1270   -2.1600 hc        1 MOL      0.125488
      5 H2          0.9880    6.8430   -2.6110 hc        1 MOL      0.125488
      6 H3          1.5740    5.5820   -3.7230 hc        1 MOL      0.125488
      7 N1          3.9410    5.5350   -2.7430 n         1 MOL     -0.458157
      8 C3          5.1700    5.2330   -2.1160 c3        1 MOL     -0.125351
      9 C4          5.1090    4.1620   -1.0480 c         1 MOL      0.854636
     10 O2          4.7060    3.0510   -1.2380 o         1 MOL     -0.609144
     11 C5          6.2840    4.8650   -3.1760 c3        1 MOL     -0.118668
     12 C6          7.6570    4.8830   -2.5840 c         1 MOL      0.821470
     13 O3          8.1280    6.0180   -2.3380 o         1 MOL     -0.766856
     14 O4          8.3950    3.9000   -2.6430 o         1 MOL     -0.766856
     15 H4          3.7690    5.2330   -3.6970 hn        1 MOL      0.293515
     16 H5          5.5440    6.0990   -1.5900 h1        1 MOL      0.058723
     17 H6          6.4450    5.4860   -4.0620 hc        1 MOL      0.001686
     18 H7          6.0620    3.8660   -3.5340 hc        1 MOL      0.001686
     19 N2          5.7250    4.4130    0.0920 n         1 MOL     -0.799579
     20 C7          5.7580    3.5830    1.2840 c3        1 MOL      0.513092
     21 C8          4.3670    3.6280    2.0430 c         1 MOL      0.350074
     22 O5          3.6160    4.5490    1.7680 o         1 MOL     -0.488971
     23 C9          6.9150    4.0920    2.2220 c3        1 MOL     -0.180858
     24 H8          5.9660    5.3750    0.2500 hn        1 MOL      0.325661
     25 H9          5.9310    2.5310    1.0190 h1        1 MOL      0.031871
     26 H10         7.7790    4.4480    1.6570 hc        1 MOL      0.026548
     27 H11         6.5170    4.8130    2.9310 hc        1 MOL      0.026548
     28 H12         7.1360    3.2010    2.8120 hc        1 MOL      0.026548
     29 N3          3.8940    2.6850    2.8460 n         1 MOL     -0.370413
     30 C10         4.5940    1.4890    3.3440 c3        1 MOL     -0.045304
     31 C11         4.8270    0.5090    2.2230 c         1 MOL      0.598879
     32 O6          4.0360    0.4730    1.2790 o         1 MOL     -0.494779
     33 C12         3.8490    0.8020    4.5300 c3        1 MOL     -0.230875
     34 C13         2.4140    0.5070    4.2550 c         1 MOL      0.759151
     35 O7          1.6490    1.3060    3.8000 o         1 MOL     -0.730395
     36 O8          1.9560   -0.5820    4.5650 o         1 MOL     -0.730395
     37 H13         2.9550    2.8020    3.2080 hn        1 MOL      0.281559
     38 H14         5.5270    1.8040    3.8160 h1        1 MOL      0.066379
     39 H15         3.9100    1.4620    5.4000 hc        1 MOL      0.060962
     40 H16         4.3680   -0.1250    4.7900 hc        1 MOL      0.060962
     41 N4          5.8340   -0.3480    2.3230 n         1 MOL     -0.594787
     42 C14         6.2560   -1.2650    1.2270 c3        1 MOL      0.058786
     43 C15         7.5140   -0.8290    0.5400 c         1 MOL      0.617887
     44 O9          8.0430    0.2600    0.7940 o         1 MOL     -0.539695
     45 H17         6.4460   -0.3410    3.1190 hn        1 MOL      0.329183
     46 H18         5.5140   -1.3950    0.4470 h1        1 MOL      0.057552
     47 H19         6.4960   -2.2310    1.6740 h1        1 MOL      0.057552
     48 N5          8.0740   -1.7460   -0.2800 n         1 MOL     -0.493243
     49 C16         7.5960   -3.0970   -0.5690 c3        1 MOL      0.028693
     50 C17         6.7700   -2.9610   -1.8810 c         1 MOL      0.498277
     51 O10         7.4270   -2.6650   -2.9140 o         1 MOL     -0.502422
     52 C18         8.7700   -4.0980   -0.6400 c3        1 MOL     -0.210825
     53 C19         9.6550   -4.1650    0.6000 c         1 MOL      0.593185
     54 N6          9.1610   -4.7480    1.6650 n         1 MOL     -0.735138
     55 O11        10.7410   -3.6170    0.5520 o         1 MOL     -0.518246
     56 H20         8.8480   -1.4070   -0.8430 hn        1 MOL      0.337198
     57 H21         6.9470   -3.4240    0.2430 h1        1 MOL      0.019246
     58 H22         9.4240   -3.8710   -1.4780 hc        1 MOL      0.079403
     59 H23         8.3270   -5.0290   -0.9760 hc        1 MOL      0.079403
     60 H24         8.3600   -5.3510    1.5620 hn        1 MOL      0.355063
     61 H25         9.6970   -4.7120    2.5140 hn        1 MOL      0.355063
     62 N7          5.4720   -3.2580   -1.9170 n         1 MOL     -0.314061
     63 C20         4.7040   -3.1480   -3.1420 c3        1 MOL     -0.021585
     64 C21         3.4380   -3.9970   -3.1160 c         1 MOL      0.495136
     65 O12         3.3260   -4.9170   -3.9360 o         1 MOL     -0.539927
     66 H26         5.0250   -3.5190   -1.0480 hn        1 MOL      0.230179
     67 H27         5.3600   -3.3000   -3.9930 h1        1 MOL      0.081738
     68 H28         4.3910   -2.1020   -3.1770 h1        1 MOL      0.081738
     69 N8          2.5400   -3.7310   -2.1530 n         1 MOL     -0.356505
     70 C22         1.3040   -4.4470   -1.9940 c3        1 MOL      0.035712
     71 C23         0.1370   -3.4980   -1.7680 c         1 MOL      0.453504
     72 O13         0.3640   -2.3310   -1.4610 o         1 MOL     -0.559736
     73 C24         1.3620   -5.4490   -0.8460 c3        1 MOL      0.392477
     74 C25         2.2360   -6.5610   -1.3680 c3        1 MOL     -0.307983
     75 O14         1.9170   -5.0240    0.4160 oh        1 MOL     -0.611925
     76 H29         2.7690   -3.0760   -1.4170 hn        1 MOL      0.250530
     77 H30         1.0100   -4.9820   -2.9030 h1        1 MOL      0.081426
     78 H31         0.3580   -5.8690   -0.7050 h1        1 MOL     -0.035166
     79 H32         1.1900   -4.8290    1.0000 ho        1 MOL      0.388546
     80 H33         2.3790   -7.2750   -0.5540 hc        1 MOL      0.073955
     81 H34         1.6980   -7.0450   -2.1740 hc        1 MOL      0.073955
     82 H35         3.2530   -6.1960   -1.5510 hc        1 MOL      0.073955
     83 N9         -1.0810   -4.0060   -1.8090 n         1 MOL     -0.334937
     84 C26        -2.3750   -3.3650   -1.5950 c3        1 MOL     -0.006435
     85 C27        -3.0550   -3.7650   -0.2100 c         1 MOL      0.233363
     86 O15        -3.1170   -5.0030    0.1240 o         1 MOL     -0.527118
     87 C28        -3.3510   -3.6840   -2.8130 c3        1 MOL      0.048371
     88 C29        -4.6530   -2.8370   -2.6110 c3        1 MOL     -0.041224
     89 C30        -2.5540   -3.2350   -4.1080 c3        1 MOL     -0.245474
     90 C31        -5.6490   -2.6850   -3.8080 c3        1 MOL     -0.301185
     91 H36        -1.1590   -4.9280   -2.2000 hn        1 MOL      0.256928
     92 H37        -2.2230   -2.2840   -1.6100 h1        1 MOL      0.205777
     93 H38        -3.4790   -4.7660   -2.8320 hc        1 MOL      0.029089
     94 H39        -4.4110   -1.8160   -2.2890 hc        1 MOL      0.051619
     95 H40        -5.1960   -3.1350   -1.7080 hc        1 MOL      0.051619
     96 H41        -2.1320   -2.2380   -4.0060 hc        1 MOL      0.060738
     97 H42        -1.7380   -3.9510   -4.1920 hc        1 MOL      0.060738
     98 H43        -3.1540   -3.2630   -5.0260 hc        1 MOL      0.060738
     99 H44        -6.5580   -2.2990   -3.3500 hc        1 MOL      0.081117
    100 H45        -5.3280   -1.9940   -4.5880 hc        1 MOL      0.081117
    101 H46        -5.7740   -3.6430   -4.3010 hc        1 MOL      0.081117
    102 N10        -3.4520   -2.7740    0.5630 n         1 MOL     -0.018055
    103 C32        -4.2820   -3.0380    1.7650 c3        1 MOL      0.073466
    104 C33        -5.5110   -2.1150    2.0520 c         1 MOL      0.529804
    105 O16        -6.1470   -2.2240    3.0630 o         1 MOL     -0.512344
    106 C34        -3.4740   -3.2520    3.0250 c3        1 MOL     -0.270996
    107 C35        -2.5350   -2.1310    3.2270 c         1 MOL      0.869936
    108 O17        -1.3290   -2.2970    3.5350 o         1 MOL     -0.788731
    109 O18        -2.8930   -0.9590    3.0670 o         1 MOL     -0.788731
    110 H47        -3.3560   -1.7950    0.3320 hn        1 MOL     -0.025665
    111 H48        -4.8000   -3.9950    1.6720 h1        1 MOL      0.071527
    112 H49        -2.8760   -4.1620    2.9590 hc        1 MOL      0.061352
    113 H50        -4.1390   -3.2830    3.8920 hc        1 MOL      0.061352
    114 N11        -5.8350   -1.3030    0.9920 n         1 MOL     -0.696486
    115 C36        -7.0360   -0.4430    0.9350 c3        1 MOL      0.531347
    116 C37        -6.7690    0.9790    0.3880 c         1 MOL      0.147102
    117 O19        -7.1770    1.3680   -0.7180 o         1 MOL     -0.381665
    118 C38        -8.1930   -1.1270    0.1400 c3        1 MOL     -0.325702
    119 C39        -9.5900   -0.4670    0.2180 ca        1 MOL      0.166734
    120 C40       -10.2010    0.1000    1.4110 ca        1 MOL     -0.194722
    121 C41       -10.3450   -0.4690   -0.9850 ca        1 MOL     -0.194722
    122 C42       -11.4540    0.7510    1.2270 ca        1 MOL     -0.104910
    123 C43       -11.7010    0.0090   -1.0760 ca        1 MOL     -0.104910
    124 C44       -12.2340    0.7450    0.0360 ca        1 MOL     -0.157111
    125 H51        -5.1010   -1.1470    0.3250 hn        1 MOL      0.369963
    126 H52        -7.5460   -0.4440    1.8970 h1        1 MOL      0.003316
    127 H53        -8.3750   -2.0870    0.6260 hc        1 MOL      0.091641
    128 H54        -7.8610   -1.4440   -0.8480 hc        1 MOL      0.091641
    129 H55        -9.7250    0.1730    2.3810 ha        1 MOL      0.127690
    130 H56        -9.9390   -0.8600   -1.9050 ha        1 MOL      0.127690
    131 H57       -11.8670    1.3100    2.0520 ha        1 MOL      0.103590
    132 H58       -12.2290   -0.0590   -2.0060 ha        1 MOL      0.103590
    133 H59       -13.1750    1.2570   -0.0410 ha        1 MOL      0.115696
    134 N12        -5.9170    1.7130    1.0970 n         1 MOL     -0.178409
    135 C45        -5.5770    3.1190    0.8310 c3        1 MOL      0.071789
    136 C46        -5.0650    3.4670   -0.5450 c         1 MOL      0.300483
    137 O20        -5.2590    4.5620   -0.9970 o         1 MOL     -0.511055
    138 C47        -4.4790    3.3640    1.8050 c3        1 MOL     -0.042285
    139 C48        -4.8990    2.5560    3.0590 c3        1 MOL     -0.053519
    140 C49        -5.3700    1.3410    2.4320 c3        1 MOL      0.118996
    141 H60        -6.4200    3.7680    1.0930 h1        1 MOL      0.053957
    142 H61        -3.5600    2.9340    1.4240 hc        1 MOL      0.039482
    143 H62        -4.3250    4.4140    2.0460 hc        1 MOL      0.039482
    144 H63        -4.0290    2.4570    3.7090 hc        1 MOL      0.007551
    145 H64        -5.6800    3.1150    3.5670 hc        1 MOL      0.007551
    146 H65        -4.5290    0.6650    2.2950 h1        1 MOL      0.030578
    147 H66        -6.1130    0.8490    3.0600 h1        1 MOL      0.030578
    148 N13        -4.4770    2.4460   -1.1480 n         1 MOL     -0.027864
    149 C50        -3.8370    2.5310   -2.4730 c3        1 MOL     -0.230295
    150 C51        -4.8710    2.7780   -3.5600 c         1 MOL      0.471057
    151 O21        -4.5960    3.3580   -4.6080 o         1 MOL     -0.532687
    152 C52        -2.9010    1.3480   -2.7590 c3        1 MOL     -0.066770
    153 C53        -1.8150    0.9800   -1.6330 c3        1 MOL     -0.152874
    154 C54        -2.3820    0.3160   -0.4120 c         1 MOL      0.603219
    155 O22        -1.6890    0.4310    0.6250 o         1 MOL     -0.625497
    156 O23        -3.5040   -0.2110   -0.6110 o         1 MOL     -0.625497
    157 H67        -4.3190    1.5660   -0.6780 hn        1 MOL      0.236445
    158 H68        -3.2350    3.4450   -2.5240 h1        1 MOL      0.134417
    159 H69        -2.3290    1.6020   -3.6480 hc        1 MOL      0.048611
    160 H70        -3.4640    0.4590   -3.0500 hc        1 MOL      0.048611
    161 H71        -1.2130    1.8540   -1.3490 hc        1 MOL      0.069145
    162 H72        -1.0890    0.3010   -2.0820 hc        1 MOL      0.069145
    163 N14        -6.2070    2.4580   -3.2670 n         1 MOL     -0.053052
    164 C55        -7.2920    2.5050   -4.1920 c3        1 MOL     -0.213062
    165 H73        -8.1500    1.9810   -3.7700 h1        1 MOL      0.074228
    166 H74        -7.5590    3.5430   -4.3860 h1        1 MOL      0.074228
    167 H75        -6.9970    2.0240   -5.1240 h1        1 MOL      0.074228
    168 H76        -6.3650    1.9770   -2.3950 hn        1 MOL      0.065505
    169 Ca1        -0.5040    0.0530    2.7400 Ca        1 MOL      1.754095
    170 O24         1.2900    0.5530    1.0660 oh        1 MOL     -0.820364
    171 H77         2.2090    0.4930    1.3490 ho        1 MOL      0.398236
    172 H78         1.3380    0.8520    0.1590 ho        1 MOL      0.398236
    173 O25        -1.0910    2.7890    2.7490 oh        1 MOL     -0.820364
    174 H79        -0.4380    3.2890    3.2390 ho        1 MOL      0.398236
    175 H80        -1.9350    3.0700    3.1190 ho        1 MOL      0.398236
    176 O26        -0.9650    0.4890    5.3270 oh        1 MOL     -0.820364
    177 H81        -1.5540    0.6810    6.0620 ho        1 MOL      0.398236
    178 H82        -0.0870    0.6460    5.6860 ho        1 MOL      0.398236
    179 O27         0.3590   -1.9830    1.2740 oh        1 MOL     -0.820364
    180 H83         0.5120   -2.9220    1.2360 ho        1 MOL      0.398236
    181 H84         0.2390   -1.7160    0.3660 ho        1 MOL      0.398236
@<TRIPOS>BOND
     1    1    2 1   
     2    1    4 1   
     3    1    5 1   
     4    1    6 1   
     5    2    3 2   
     6    2    7 1   
     7    7    8 1   
     8    7   15 1   
     9    8    9 1   
    10    8   11 1   
    11    8   16 1   
    12    9   10 2   
    13    9   19 1   
    14   11   12 1   
    15   11   17 1   
    16   11   18 1   
    17   12   13 1   
    18   12   14 1   
    19   19   20 1   
    20   19   24 1   
    21   20   21 1   
    22   20   23 1   
    23   20   25 1   
    24   21   22 2   
    25   21   29 1   
    26   23   26 1   
    27   23   27 1   
    28   23   28 1   
    29   29   30 1   
    30   29   37 1   
    31   30   31 1   
    32   30   33 1   
    33   30   38 1   
    34   31   32 2   
    35   31   41 1   
    36   33   34 1   
    37   33   39 1   
    38   33   40 1   
    39   34   35 1   
    40   34   36 1   
    41   41   42 1   
    42   41   45 1   
    43   42   43 1   
    44   42   46 1   
    45   42   47 1   
    46   43   44 2   
    47   43   48 1   
    48   48   49 1   
    49   48   56 1   
    50   49   50 1   
    51   49   52 1   
    52   49   57 1   
    53   50   51 2   
    54   50   62 1   
    55   52   53 1   
    56   52   58 1   
    57   52   59 1   
    58   53   54 1   
    59   53   55 2   
    60   54   60 1   
    61   54   61 1   
    62   62   63 1   
    63   62   66 1   
    64   63   64 1   
    65   63   67 1   
    66   63   68 1   
    67   64   65 2   
    68   64   69 1   
    69   69   70 1   
    70   69   76 1   
    71   70   71 1   
    72   70   73 1   
    73   70   77 1   
    74   71   72 2   
    75   71   83 1   
    76   73   74 1   
    77   73   75 1   
    78   73   78 1   
    79   74   80 1   
    80   74   81 1   
    81   74   82 1   
    82   75   79 1   
    83   83   84 1   
    84   83   91 1   
    85   84   85 1   
    86   84   87 1   
    87   84   92 1   
    88   85   86 2   
    89   85  102 1   
    90   87   88 1   
    91   87   89 1   
    92   87   93 1   
    93   88   90 1   
    94   88   94 1   
    95   88   95 1   
    96   89   96 1   
    97   89   97 1   
    98   89   98 1   
    99   90   99 1   
   100   90  100 1   
   101   90  101 1   
   102  102  103 1   
   103  102  110 1   
   104  103  104 1   
   105  103  106 1   
   106  103  111 1   
   107  104  105 2   
   108  104  114 1   
   109  106  107 1   
   110  106  112 1   
   111  106  113 1   
   112  107  108 1   
   113  107  109 1   
   114  114  115 1   
   115  114  125 1   
   116  115  116 1   
   117  115  118 1   
   118  115  126 1   
   119  116  117 2   
   120  116  134 1   
   121  118  119 1   
   122  118  127 1   
   123  118  128 1   
   124  119  120 ar  
   125  119  121 ar  
   126  120  122 ar  
   127  120  129 1   
   128  121  123 ar  
   129  121  130 1   
   130  122  124 ar  
   131  122  131 1   
   132  123  124 ar  
   133  123  132 1   
   134  124  133 1   
   135  134  135 1   
   136  134  140 1   
   137  135  136 1   
   138  135  138 1   
   139  135  141 1   
   140  136  137 2   
   141  136  148 1   
   142  138  139 1   
   143  138  142 1   
   144  138  143 1   
   145  139  140 1   
   146  139  144 1   
   147  139  145 1   
   148  140  146 1   
   149  140  147 1   
   150  148  149 1   
   151  148  157 1   
   152  149  150 1   
   153  149  152 1   
   154  149  158 1   
   155  150  151 2   
   156  150  163 1   
   157  152  153 1   
   158  152  159 1   
   159  152  160 1   
   160  153  154 1   
   161  153  161 1   
   162  153  162 1   
   163  154  155 1   
   164  154  156 1   
   165  163  164 1   
   166  163  168 1   
   167  164  165 1   
   168  164  166 1   
   169  164  167 1   
   170  170  171 1   
   171  170  172 1   
   172  173  174 1   
   173  173  175 1   
   174  176  177 1   
   175  176  178 1   
   176  179  180 1   
   177  179  181 1   
@<TRIPOS>SUBSTRUCTURE
     1 MOL         1 TEMP              0 ****  ****    0 ROOT
