@<TRIPOS>MOLECULE
MOL
  189   185     1     0     0
SMALL
resp


@<TRIPOS>ATOM
      1 C1          4.0570    4.3630   -3.4210 c3        1 MOL     -0.477476
      2 C2          4.9030    3.5290   -2.3800 c         1 MOL      0.603908
      3 O1          4.3750    3.0380   -1.3480 o         1 MOL     -0.512571
      4 H1          3.3440    4.9930   -2.8890 hc        1 MOL      0.133678
      5 H2          4.7230    4.9890   -4.0130 hc        1 MOL      0.133678
      6 H3          3.5170    3.6820   -4.0800 hc        1 MOL      0.133678
      7 N1          6.1530    3.1470   -2.6890 n         1 MOL     -0.515593
      8 C3          6.8900    2.0220   -2.0390 c3        1 MOL      0.044988
      9 C4          6.0770    0.7240   -1.6420 c         1 MOL      0.563310
     10 O2          5.8170    0.4190   -0.4530 o         1 MOL     -0.712306
     11 C5          7.7700    2.4720   -0.8950 c3        1 MOL     -0.094486
     12 C6          7.1400    3.4500    0.1660 c         1 MOL      0.715494
     13 O3          6.2890    2.9870    1.0440 o         1 MOL     -0.715960
     14 O4          7.4560    4.6730    0.1670 o         1 MOL     -0.715960
     15 H4          6.5010    3.6360   -3.5070 hn        1 MOL      0.299934
     16 H5          7.5560    1.6790   -2.8210 h1        1 MOL      0.057731
     17 H6          8.6070    3.0820   -1.2500 hc        1 MOL      0.038027
     18 H7          8.3010    1.7120   -0.3360 hc        1 MOL      0.038027
     19 N2          5.6420   -0.0130   -2.6800 n         1 MOL     -0.526665
     20 C7          5.0190   -1.3940   -2.6990 c3        1 MOL      0.148151
     21 C8          5.7820   -2.5250   -2.0250 c         1 MOL      0.408297
     22 O5          6.0190   -3.5030   -2.7050 o         1 MOL     -0.554358
     23 C9          3.5530   -1.3000   -2.3660 c3        1 MOL      0.564682
     24 C10         2.7720   -2.5740   -2.7070 c3        1 MOL     -0.270957
     25 C11         2.7770   -0.1890   -3.1820 c3        1 MOL     -0.334650
     26 C12         2.5830   -3.1320   -4.1660 c3        1 MOL     -0.259620
     27 H8          5.9150    0.4020   -3.5570 hn        1 MOL      0.267224
     28 H9          5.0320   -1.6790   -3.7570 h1        1 MOL      0.011888
     29 H10         3.4080   -1.1030   -1.3070 hc        1 MOL     -0.277854
     30 H11         1.7650   -2.4280   -2.3040 hc        1 MOL      0.112170
     31 H12         3.2450   -3.3570   -2.1080 hc        1 MOL      0.112170
     32 H13         1.7200   -0.1910   -2.9260 hc        1 MOL      0.061637
     33 H14         3.1040    0.7890   -2.8180 hc        1 MOL      0.061637
     34 H15         3.0310   -0.1930   -4.2400 hc        1 MOL      0.061637
     35 H16         1.9050   -3.9800   -4.1670 hc        1 MOL      0.054411
     36 H17         2.0100   -2.4160   -4.7510 hc        1 MOL      0.054411
     37 H18         3.5300   -3.3930   -4.6440 hc        1 MOL      0.054411
     38 N3          6.1620   -2.3320   -0.7650 n         1 MOL     -0.394951
     39 C13         7.0530   -3.2750   -0.0340 c3        1 MOL      0.202826
     40 C14         6.4360   -4.6230    0.4060 c         1 MOL      0.539490
     41 O6          7.1140   -5.6290    0.4400 o         1 MOL     -0.581357
     42 C15         7.6950   -2.4920    1.1820 c3        1 MOL     -0.367938
     43 C16         8.8230   -1.4770    0.8120 c         1 MOL      0.810756
     44 O7          9.3980   -1.5890   -0.2750 o         1 MOL     -0.747460
     45 O8          9.1160   -0.5560    1.5950 o         1 MOL     -0.747460
     46 H19         6.0470   -1.3390   -0.6260 hn        1 MOL      0.405446
     47 H20         7.8440   -3.6690   -0.6660 h1        1 MOL      0.028278
     48 H21         8.0810   -3.2990    1.8000 hc        1 MOL      0.074315
     49 H22         6.8650   -2.0250    1.7090 hc        1 MOL      0.074315
     50 N4          5.1060   -4.7240    0.5910 n         1 MOL     -0.491212
     51 C17         4.0890   -3.7370    0.9140 c3        1 MOL     -0.043222
     52 C18         2.8340   -4.3990    1.5320 c         1 MOL      0.573230
     53 O9          2.6210   -5.5910    1.2620 o         1 MOL     -0.563881
     54 H23         4.8330   -5.6960    0.6640 hn        1 MOL      0.274069
     55 H24         3.6460   -3.2410    0.0400 h1        1 MOL      0.133446
     56 H25         4.5620   -3.0060    1.5690 h1        1 MOL      0.133446
     57 N5          1.9830   -3.7270    2.3980 n         1 MOL     -0.607056
     58 C19         2.0640   -2.3580    2.9080 c3        1 MOL      0.444749
     59 C20         2.3270   -1.2850    1.8610 c         1 MOL     -0.007518
     60 O10         3.4760   -0.7620    1.7150 o         1 MOL     -0.364038
     61 C21         3.1900   -2.3550    4.0250 c3        1 MOL     -0.473925
     62 C22         3.2270   -0.9610    4.6860 c         1 MOL      0.756414
     63 O11         4.3070   -0.5720    5.2240 o         1 MOL     -0.683834
     64 O12         2.2630   -0.1350    4.6430 o         1 MOL     -0.683834
     65 H26         1.2100   -4.2670    2.7480 hn        1 MOL      0.305611
     66 H27         1.1160   -2.1210    3.3840 h1        1 MOL     -0.012029
     67 H28         4.1350   -2.5480    3.5210 hc        1 MOL      0.123078
     68 H29         2.8690   -3.0440    4.7930 hc        1 MOL      0.123078
     69 N6          1.3120   -0.8640    1.0960 n         1 MOL     -0.026883
     70 C23        -0.1230   -1.1820    1.2560 c3        1 MOL     -0.428624
     71 C24        -0.5210   -2.5020    0.5620 c         1 MOL      0.743863
     72 O13         0.1100   -2.9520   -0.3280 o         1 MOL     -0.557853
     73 H30         1.5030   -0.2420    0.3210 hn        1 MOL      0.260655
     74 H31        -0.6950   -0.4200    0.7280 h1        1 MOL      0.157786
     75 H32        -0.3610   -1.1500    2.3140 h1        1 MOL      0.157786
     76 N7         -1.6600   -3.0460    0.9640 n         1 MOL     -0.544023
     77 C25        -2.2180   -4.3070    0.4490 c3        1 MOL     -0.016919
     78 C26        -2.9270   -4.1510   -0.9180 c         1 MOL      0.305693
     79 O14        -3.2640   -5.2520   -1.4920 o         1 MOL     -0.511179
     80 C27        -3.0860   -4.9510    1.5150 c3        1 MOL      0.049295
     81 C28        -4.2570   -4.1740    2.1430 c3        1 MOL     -0.220169
     82 C29        -5.3500   -3.8760    1.1140 c         1 MOL      0.462896
     83 N8         -6.1860   -4.7960    0.6560 n         1 MOL     -0.655122
     84 O15        -5.3620   -2.7740    0.6640 o         1 MOL     -0.509757
     85 H33        -2.1780   -2.5200    1.6550 hn        1 MOL      0.298384
     86 H34        -1.3750   -4.9810    0.3240 h1        1 MOL      0.156917
     87 H35        -2.4630   -5.4460    2.2720 hc        1 MOL      0.021746
     88 H36        -3.5090   -5.8570    1.0780 hc        1 MOL      0.021746
     89 H37        -3.9410   -3.2370    2.6090 hc        1 MOL      0.084723
     90 H38        -4.6330   -4.7960    2.9590 hc        1 MOL      0.084723
     91 H39        -6.0960   -5.7100    1.0760 hn        1 MOL      0.332916
     92 H40        -6.9380   -4.5120    0.0430 hn        1 MOL      0.332916
     93 N9         -3.2380   -2.9230   -1.3880 n         1 MOL     -0.010598
     94 C30        -3.7520   -2.7750   -2.8030 c3        1 MOL     -0.214618
     95 C31        -5.1590   -2.1330   -3.0040 c         1 MOL      0.390251
     96 O16        -5.6810   -2.0920   -4.0890 o         1 MOL     -0.536343
     97 C32        -2.5690   -2.2000   -3.6770 c3        1 MOL      0.224999
     98 C33        -1.2830   -3.0160   -3.5810 c3        1 MOL     -0.310661
     99 C34        -2.1910   -0.8020   -3.1100 c3        1 MOL     -0.310661
    100 H41        -2.9520   -2.0570   -0.9590 hn        1 MOL      0.135802
    101 H42        -3.9470   -3.7540   -3.2400 h1        1 MOL      0.134250
    102 H43        -2.8140   -2.0250   -4.7240 hc        1 MOL     -0.006146
    103 H44        -0.4630   -2.4040   -3.9590 hc        1 MOL      0.087494
    104 H45        -0.9590   -3.3700   -2.6030 hc        1 MOL      0.087494
    105 H46        -1.4450   -3.9330   -4.1600 hc        1 MOL      0.087494
    106 H47        -1.4270   -0.3500   -3.7380 hc        1 MOL      0.087494
    107 H48        -3.1120   -0.2190   -3.0260 hc        1 MOL      0.087494
    108 H49        -1.7280   -1.0420   -2.1540 hc        1 MOL      0.087494
    109 N10        -5.8710   -1.7110   -1.9320 n         1 MOL     -0.031848
    110 C35        -7.1480   -0.9920   -2.0010 c3        1 MOL     -0.051397
    111 C36        -7.2200    0.4710   -1.5080 c         1 MOL      0.517822
    112 O17        -8.3100    1.0320   -1.7070 o         1 MOL     -0.531214
    113 C37        -8.2430   -1.8170   -1.3080 c3        1 MOL     -0.156267
    114 C38        -8.3230   -3.2250   -1.7170 c         1 MOL      0.607634
    115 N11        -8.3960   -3.4570   -2.9800 n         1 MOL     -0.704738
    116 O18        -8.4880   -4.0640   -0.8780 o         1 MOL     -0.563914
    117 H50        -5.5480   -1.9880   -1.0170 hn        1 MOL      0.202637
    118 H51        -7.3930   -1.0090   -3.0600 h1        1 MOL      0.041609
    119 H52        -9.1480   -1.2370   -1.5010 hc        1 MOL      0.041091
    120 H53        -8.1220   -1.7600   -0.2240 hc        1 MOL      0.041091
    121 H54        -8.5310   -2.6040   -3.5060 hn        1 MOL      0.355888
    122 H55        -8.5560   -4.3910   -3.3050 hn        1 MOL      0.355888
    123 N12        -6.1280    0.9700   -0.9590 n         1 MOL     -0.389833
    124 C39        -6.0660    2.2870   -0.2900 c3        1 MOL      0.189565
    125 C40        -4.6360    2.7350    0.0470 c         1 MOL      0.421796
    126 O19        -3.6850    1.9550    0.1570 o         1 MOL     -0.397390
    127 C41        -6.8340    2.3360    1.0230 c3        1 MOL     -0.226557
    128 C42        -6.4600    1.1740    1.9400 ca        1 MOL      0.295407
    129 C43        -7.3720    0.0680    2.0150 ca        1 MOL     -0.399722
    130 C44        -5.3410    1.3100    2.8010 ca        1 MOL     -0.399722
    131 C45        -7.0700   -0.9110    2.9240 ca        1 MOL     -0.005737
    132 C46        -5.0830    0.2790    3.7300 ca        1 MOL     -0.005737
    133 C47        -5.9610   -0.8460    3.8130 ca        1 MOL      0.064872
    134 O20        -5.6510   -1.7530    4.6630 oh        1 MOL     -0.366510
    135 H56        -5.2650    0.4550   -0.9320 hn        1 MOL      0.152389
    136 H57        -6.4490    3.0240   -0.9880 h1        1 MOL      0.016134
    137 H58        -7.8750    2.2350    0.7170 hc        1 MOL      0.064441
    138 H59        -6.6890    3.3210    1.4900 hc        1 MOL      0.064441
    139 H60        -8.3030    0.0490    1.4860 ha        1 MOL      0.191293
    140 H61        -4.6910    2.1670    2.7440 ha        1 MOL      0.191293
    141 H62        -7.7510   -1.7550    2.9970 ha        1 MOL      0.101371
    142 H63        -4.1630    0.2360    4.3050 ha        1 MOL      0.101371
    143 H64        -6.2130   -2.5250    4.6010 ho        1 MOL      0.309813
    144 N13        -4.5900    4.0540    0.2320 n         1 MOL     -0.473669
    145 C48        -3.4470    4.8540    0.7400 c3        1 MOL      0.093893
    146 C49        -2.2030    5.0280   -0.1600 c         1 MOL      0.296054
    147 O21        -1.5680    6.1010   -0.2370 o         1 MOL     -0.487578
    148 C50        -3.0380    4.5040    2.1680 c3        1 MOL     -0.020250
    149 C51        -4.0630    5.1490    3.1600 c3        1 MOL      0.094248
    150 C52        -3.6640    4.9860    4.6340 c         1 MOL      0.483014
    151 O22        -3.9950    3.9270    5.2020 o         1 MOL     -0.659270
    152 O23        -2.9050    5.8350    5.2040 o         1 MOL     -0.659270
    153 H65        -5.4790    4.5400    0.2480 hn        1 MOL      0.292349
    154 H66        -3.8080    5.8880    0.8280 h1        1 MOL      0.060769
    155 H67        -2.1040    5.0330    2.3600 hc        1 MOL      0.058747
    156 H68        -2.9290    3.4330    2.2740 hc        1 MOL      0.058747
    157 H69        -5.0350    4.7340    2.9030 hc        1 MOL     -0.065850
    158 H70        -4.0830    6.2220    2.9800 hc        1 MOL     -0.065850
    159 N14        -1.8090    3.9990   -0.9360 n         1 MOL     -0.273497
    160 C53        -0.8360    4.2080   -2.0460 c3        1 MOL     -0.054104
    161 C54        -1.3620    5.1250   -3.1060 c         1 MOL      0.481369
    162 O24        -0.5930    5.5850   -3.9400 o         1 MOL     -0.531842
    163 C55        -0.2830    2.8700   -2.5390 c3        1 MOL      0.000381
    164 C56         0.0310    1.8170   -1.5050 c3        1 MOL      0.576663
    165 C57         1.2610    2.1010   -0.6560 c         1 MOL      0.363664
    166 O25         1.3130    3.1150    0.0230 o         1 MOL     -0.585871
    167 O26         2.0680    1.2390   -0.5800 o         1 MOL     -0.585871
    168 H71        -2.1100    3.0390   -0.8140 hn        1 MOL      0.161210
    169 H72         0.0610    4.5880   -1.5500 h1        1 MOL      0.122046
    170 H73         0.5880    3.1490   -3.1420 hc        1 MOL     -0.027526
    171 H74        -1.0360    2.4130   -3.1860 hc        1 MOL     -0.027526
    172 H75         0.2090    0.9300   -2.1130 hc        1 MOL     -0.182322
    173 H76        -0.8100    1.6140   -0.8460 hc        1 MOL     -0.182322
    174 N15        -2.6940    5.4590   -3.1660 n         1 MOL     -0.231592
    175 C58        -3.2760    6.2560   -4.2760 c3        1 MOL     -0.173696
    176 H77        -4.0230    6.9420   -3.8770 h1        1 MOL      0.079854
    177 H78        -2.4870    6.8250   -4.7670 h1        1 MOL      0.079854
    178 H79        -3.7460    5.5880   -4.9970 h1        1 MOL      0.079854
    179 H80        -3.3520    5.0550   -2.5230 hn        1 MOL      0.186372
    180 Ca1         4.0150    1.9820    1.0740 Ca        1 MOL      1.808044
    181 O27         2.1030    1.6050    2.7970 oh        1 MOL     -0.935667
    182 H81         1.2630    2.0460    2.7440 ho        1 MOL      0.433035
    183 H82         2.0180    0.9830    3.5200 ho        1 MOL      0.433035
    184 O28         3.5700    4.5760    1.2310 oh        1 MOL     -0.935667
    185 H83         4.1070    5.3360    1.0180 ho        1 MOL      0.433035
    186 H84         2.6710    4.9120    1.2300 ho        1 MOL      0.433035
    187 O29         4.9520    1.4550    3.5380 oh        1 MOL     -0.935667
    188 H85         4.8960    0.7880    4.2250 ho        1 MOL      0.433035
    189 H86         5.3190    2.2180    3.9650 ho        1 MOL      0.433035
@<TRIPOS>BOND
     1    1    2 1   
     2    1    4 1   
     3    1    5 1   
     4    1    6 1   
     5    2    3 2   
     6    2    7 1   
     7    7    8 1   
     8    7   15 1   
     9    8    9 1   
    10    8   11 1   
    11    8   16 1   
    12    9   10 2   
    13    9   19 1   
    14   11   12 1   
    15   11   17 1   
    16   11   18 1   
    17   12   13 1   
    18   12   14 1   
    19   19   20 1   
    20   19   27 1   
    21   20   21 1   
    22   20   23 1   
    23   20   28 1   
    24   21   22 2   
    25   21   38 1   
    26   23   24 1   
    27   23   25 1   
    28   23   29 1   
    29   24   26 1   
    30   24   30 1   
    31   24   31 1   
    32   25   32 1   
    33   25   33 1   
    34   25   34 1   
    35   26   35 1   
    36   26   36 1   
    37   26   37 1   
    38   38   39 1   
    39   38   46 1   
    40   39   40 1   
    41   39   42 1   
    42   39   47 1   
    43   40   41 2   
    44   40   50 1   
    45   42   43 1   
    46   42   48 1   
    47   42   49 1   
    48   43   44 1   
    49   43   45 1   
    50   50   51 1   
    51   50   54 1   
    52   51   52 1   
    53   51   55 1   
    54   51   56 1   
    55   52   53 2   
    56   52   57 1   
    57   57   58 1   
    58   57   65 1   
    59   58   59 1   
    60   58   61 1   
    61   58   66 1   
    62   59   60 2   
    63   59   69 1   
    64   61   62 1   
    65   61   67 1   
    66   61   68 1   
    67   62   63 1   
    68   62   64 1   
    69   69   70 1   
    70   69   73 1   
    71   70   71 1   
    72   70   74 1   
    73   70   75 1   
    74   71   72 2   
    75   71   76 1   
    76   76   77 1   
    77   76   85 1   
    78   77   78 1   
    79   77   80 1   
    80   77   86 1   
    81   78   79 2   
    82   78   93 1   
    83   80   81 1   
    84   80   87 1   
    85   80   88 1   
    86   81   82 1   
    87   81   89 1   
    88   81   90 1   
    89   82   83 1   
    90   82   84 2   
    91   83   91 1   
    92   83   92 1   
    93   93   94 1   
    94   93  100 1   
    95   94   95 1   
    96   94   97 1   
    97   94  101 1   
    98   95   96 2   
    99   95  109 1   
   100   97   98 1   
   101   97   99 1   
   102   97  102 1   
   103   98  103 1   
   104   98  104 1   
   105   98  105 1   
   106   99  106 1   
   107   99  107 1   
   108   99  108 1   
   109  109  110 1   
   110  109  117 1   
   111  110  111 1   
   112  110  113 1   
   113  110  118 1   
   114  111  112 2   
   115  111  123 1   
   116  113  114 1   
   117  113  119 1   
   118  113  120 1   
   119  114  115 1   
   120  114  116 2   
   121  115  121 1   
   122  115  122 1   
   123  123  124 1   
   124  123  135 1   
   125  124  125 1   
   126  124  127 1   
   127  124  136 1   
   128  125  126 2   
   129  125  144 1   
   130  127  128 1   
   131  127  137 1   
   132  127  138 1   
   133  128  129 ar  
   134  128  130 ar  
   135  129  131 ar  
   136  129  139 1   
   137  130  132 ar  
   138  130  140 1   
   139  131  133 ar  
   140  131  141 1   
   141  132  133 ar  
   142  132  142 1   
   143  133  134 1   
   144  134  143 1   
   145  144  145 1   
   146  144  153 1   
   147  145  146 1   
   148  145  148 1   
   149  145  154 1   
   150  146  147 2   
   151  146  159 1   
   152  148  149 1   
   153  148  155 1   
   154  148  156 1   
   155  149  150 1   
   156  149  157 1   
   157  149  158 1   
   158  150  151 1   
   159  150  152 1   
   160  159  160 1   
   161  159  168 1   
   162  160  161 1   
   163  160  163 1   
   164  160  169 1   
   165  161  162 2   
   166  161  174 1   
   167  163  164 1   
   168  163  170 1   
   169  163  171 1   
   170  164  165 1   
   171  164  172 1   
   172  164  173 1   
   173  165  166 1   
   174  165  167 1   
   175  174  175 1   
   176  174  179 1   
   177  175  176 1   
   178  175  177 1   
   179  175  178 1   
   180  181  182 1   
   181  181  183 1   
   182  184  185 1   
   183  184  186 1   
   184  187  188 1   
   185  187  189 1   
@<TRIPOS>SUBSTRUCTURE
     1 MOL         1 TEMP              0 ****  ****    0 ROOT
