@<TRIPOS>MOLECULE
MOL
  201   193     1     0     0
SMALL
resp


@<TRIPOS>ATOM
      1 C1         -5.1160    8.5440    5.0900 c3        1 MOL     -0.406619
      2 C2         -5.6720    7.7600    3.8330 c         1 MOL      0.655594
      3 O1         -6.8170    7.2610    3.7830 o         1 MOL     -0.575949
      4 H1         -5.7990    8.4140    5.9300 hc        1 MOL      0.108644
      5 H2         -4.1340    8.1530    5.3580 hc        1 MOL      0.108644
      6 H3         -5.0330    9.6040    4.8510 hc        1 MOL      0.108644
      7 N1         -4.8070    7.6300    2.7840 n         1 MOL     -0.534256
      8 C3         -4.9380    6.8250    1.5170 c3        1 MOL      0.185090
      9 C4         -4.2830    5.4710    1.6030 c         1 MOL      0.541582
     10 O2         -3.4780    5.2470    2.4920 o         1 MOL     -0.568741
     11 C5         -4.4110    7.6440    0.3830 c3        1 MOL     -0.125933
     12 C6         -4.9150    9.0730    0.4670 c         1 MOL      0.666539
     13 O3         -6.1030    9.3660    0.0550 o         1 MOL     -0.621204
     14 O4         -4.0540    9.8870    0.8540 o         1 MOL     -0.621204
     15 H4         -3.9380    8.1380    2.8510 hn        1 MOL      0.295881
     16 H5         -5.9880    6.5740    1.3110 h1        1 MOL      0.026383
     17 H6         -4.5880    7.1920   -0.5960 hc        1 MOL      0.026337
     18 H7         -3.3340    7.8030    0.4720 hc        1 MOL      0.026337
     19 N2         -4.5940    4.6290    0.6700 n         1 MOL     -0.508578
     20 C7         -3.8390    3.3360    0.3750 c3        1 MOL      0.150110
     21 C8         -2.6610    3.5070   -0.5850 c         1 MOL      0.528403
     22 O5         -2.7140    4.3080   -1.5090 o         1 MOL     -0.542683
     23 C9         -4.8190    2.2290   -0.1260 c3        1 MOL      0.058470
     24 C10        -5.8620    1.9170    0.9040 c3        1 MOL     -0.329624
     25 C11        -7.0700    0.9320    0.6620 c3        1 MOL      0.220178
     26 C12        -7.7160    0.4920    1.9140 c3        1 MOL     -0.092005
     27 N3         -8.6100   -0.7090    1.7090 n4        1 MOL     -0.365557
     28 H8         -5.1950    5.0220   -0.0350 hn        1 MOL      0.286126
     29 H9         -3.3470    2.9760    1.2750 h1        1 MOL      0.020387
     30 H10        -4.2900    1.2940   -0.3580 hc        1 MOL      0.059099
     31 H11        -5.2460    2.6040   -1.0570 hc        1 MOL      0.059099
     32 H12        -6.3780    2.8510    1.1310 hc        1 MOL      0.076428
     33 H13        -5.3020    1.6640    1.7960 hc        1 MOL      0.076428
     34 H14        -6.6920    0.0340    0.1710 hc        1 MOL      0.015943
     35 H15        -7.7600    1.4340   -0.0100 hc        1 MOL      0.015943
     36 H16        -8.2960    1.3630    2.2330 hx        1 MOL      0.097184
     37 H17        -6.8910    0.2990    2.6010 hx        1 MOL      0.097184
     38 H18        -8.0110   -1.4150    1.2900 hn        1 MOL      0.333140
     39 H19        -8.9790   -0.9480    2.6110 hn        1 MOL      0.333140
     40 H20        -9.3500   -0.4660    1.0760 hn        1 MOL      0.333140
     41 N4         -1.6890    2.6110   -0.4420 n         1 MOL     -0.503222
     42 C13        -0.5520    2.3680   -1.3370 c3        1 MOL      0.113902
     43 C14        -0.0010    0.9480   -1.2220 c         1 MOL      0.490057
     44 O6          0.9090    0.7340   -0.4240 o         1 MOL     -0.444842
     45 C15         0.5760    3.4110   -1.1190 c3        1 MOL     -0.034716
     46 C16         1.6940    3.4630   -2.1610 c         1 MOL      0.659975
     47 O7          2.3870    4.4610   -2.2480 o         1 MOL     -0.785753
     48 O8          2.0030    2.5380   -2.9440 o         1 MOL     -0.785753
     49 H21        -1.7640    2.0460    0.3980 hn        1 MOL      0.301544
     50 H22        -0.9690    2.4200   -2.3400 h1        1 MOL      0.085516
     51 H23         0.9740    3.3290   -0.1020 hc        1 MOL      0.053553
     52 H24         0.0580    4.3670   -1.1920 hc        1 MOL      0.053553
     53 N5         -0.6550   -0.0820   -1.8490 n         1 MOL     -0.483905
     54 C17        -1.7770   -0.0080   -2.8610 c3        1 MOL     -0.045578
     55 C18        -3.2140   -0.4450   -2.4020 c         1 MOL      0.330369
     56 O9         -3.3890   -0.7270   -1.1990 o         1 MOL     -0.429182
     57 H25        -0.6250   -0.9760   -1.3730 hn        1 MOL      0.293261
     58 H26        -1.5200   -0.7240   -3.6460 h1        1 MOL      0.076078
     59 H27        -1.8390    0.9650   -3.3310 h1        1 MOL      0.076078
     60 N6         -4.2060   -0.4720   -3.3140 n         1 MOL     -0.252945
     61 C19        -5.5820   -0.6340   -2.9300 c3        1 MOL     -0.072614
     62 C20        -5.8280   -2.0760   -2.3710 c         1 MOL      0.546189
     63 O10        -6.5470   -2.2800   -1.4070 o         1 MOL     -0.522079
     64 C21        -6.5300   -0.2530   -4.0910 c3        1 MOL     -0.270958
     65 C22        -7.9610   -0.4280   -3.5710 c         1 MOL      0.762889
     66 O11        -8.3820    0.4180   -2.7820 o         1 MOL     -0.718607
     67 O12        -8.6400   -1.3350   -3.9810 o         1 MOL     -0.718607
     68 H28        -4.1060   -0.3290   -4.3100 hn        1 MOL      0.234215
     69 H29        -5.8220    0.0160   -2.0800 h1        1 MOL      0.038710
     70 H30        -6.3600   -0.8210   -5.0080 hc        1 MOL      0.064493
     71 H31        -6.3280    0.8060   -4.2900 hc        1 MOL      0.064493
     72 N7         -5.2670   -3.1010   -2.9940 n         1 MOL     -0.253059
     73 C23        -5.5050   -4.5330   -2.6960 c3        1 MOL     -0.308109
     74 C24        -4.6050   -4.9630   -1.5940 c         1 MOL      0.580860
     75 O13        -3.4210   -4.5740   -1.5700 o         1 MOL     -0.434201
     76 H32        -4.6690   -2.8820   -3.7730 hn        1 MOL      0.225277
     77 H33        -5.2890   -5.2090   -3.5250 h1        1 MOL      0.156758
     78 H34        -6.5260   -4.5690   -2.3320 h1        1 MOL      0.156758
     79 N8         -5.1450   -5.8700   -0.7520 n         1 MOL     -0.537007
     80 C25        -4.5840   -6.3500    0.5070 c3        1 MOL      0.006188
     81 C26        -4.1280   -5.1020    1.3540 c         1 MOL      0.265434
     82 O14        -4.7320   -4.0300    1.3040 o         1 MOL     -0.405063
     83 C27        -5.6100   -7.2320    1.2310 c3        1 MOL      0.358549
     84 C28        -7.0960   -6.7540    1.3440 c3        1 MOL     -0.320555
     85 O15        -5.5800   -8.3450    0.5030 oh        1 MOL     -0.586016
     86 H35        -5.9610   -6.3960   -1.0560 hn        1 MOL      0.331718
     87 H36        -3.7200   -6.9840    0.2900 h1        1 MOL      0.050522
     88 H37        -5.1560   -7.3350    2.2170 h1        1 MOL     -0.025542
     89 H38        -4.7900   -8.8320    0.7510 ho        1 MOL      0.386870
     90 H39        -7.6190   -6.7890    0.3920 hc        1 MOL      0.099654
     91 H40        -7.6350   -7.4110    2.0340 hc        1 MOL      0.099654
     92 H41        -7.2530   -5.7510    1.7450 hc        1 MOL      0.099654
     93 N9         -3.0560   -5.2160    2.0670 n         1 MOL     -0.094482
     94 C29        -2.3170   -4.0070    2.5380 c3        1 MOL     -0.020371
     95 C30        -1.2220   -3.4660    1.6480 c         1 MOL      0.619431
     96 O16        -0.9680   -2.2230    1.5480 o         1 MOL     -0.522081
     97 C31        -1.8570   -4.2550    4.0210 c3        1 MOL      0.111234
     98 C32        -2.8350   -4.9880    4.9060 c3        1 MOL     -0.095263
     99 C33        -1.5340   -2.8650    4.6100 c3        1 MOL     -0.285119
    100 C34        -4.3160   -4.5550    5.0180 c3        1 MOL     -0.133910
    101 H42        -2.6270   -6.1270    2.2020 hn        1 MOL      0.176671
    102 H43        -3.0740   -3.2240    2.6020 h1        1 MOL      0.054995
    103 H44        -0.9650   -4.8810    3.9420 hc        1 MOL     -0.021113
    104 H45        -2.4460   -4.8800    5.9200 hc        1 MOL      0.029240
    105 H46        -2.8310   -6.0500    4.6660 hc        1 MOL      0.029240
    106 H47        -0.7070   -2.4230    4.0680 hc        1 MOL      0.089371
    107 H48        -2.3190   -2.1140    4.6840 hc        1 MOL      0.089371
    108 H49        -1.1340   -2.9650    5.6120 hc        1 MOL      0.089371
    109 H50        -4.8690   -5.1690    5.7290 hc        1 MOL      0.039359
    110 H51        -4.3160   -3.5150    5.3460 hc        1 MOL      0.039359
    111 H52        -4.8210   -4.6280    4.0560 hc        1 MOL      0.039359
    112 N10        -0.5410   -4.4050    0.9450 n         1 MOL     -0.530265
    113 C35         0.6050   -4.0280    0.0990 c3        1 MOL     -0.012024
    114 C36         1.8630   -4.8380    0.4880 c         1 MOL      0.653802
    115 O17         1.6960   -6.0310    0.7690 o         1 MOL     -0.532201
    116 C37         0.3290   -4.0400   -1.3800 c3        1 MOL      0.173708
    117 C38        -0.2590   -5.3470   -1.8780 c3        1 MOL     -0.365545
    118 O18        -0.7640   -3.2010   -1.6450 oh        1 MOL     -0.400493
    119 H53        -0.8780   -5.3490    0.8340 hn        1 MOL      0.266844
    120 H54         0.7300   -2.9860    0.4010 h1        1 MOL      0.092538
    121 H55         1.1220   -3.6680   -2.0230 h1        1 MOL      0.047609
    122 H56        -1.5400   -3.7760   -1.6880 ho        1 MOL      0.265919
    123 H57        -0.5790   -5.2410   -2.9100 hc        1 MOL      0.103578
    124 H58         0.4700   -6.1400   -1.7400 hc        1 MOL      0.103578
    125 H59        -1.1580   -5.5650   -1.3060 hc        1 MOL      0.103578
    126 N11         3.0880   -4.2430    0.3550 n         1 MOL     -0.604886
    127 C39         4.3820   -4.9460    0.6800 c3        1 MOL      0.053467
    128 C40         5.4930   -3.9860    1.2390 c         1 MOL      0.591208
    129 O19         6.1130   -4.3100    2.2630 o         1 MOL     -0.525705
    130 C41         4.8520   -5.8350   -0.5250 c3        1 MOL      0.259344
    131 C42         6.3120   -6.3000   -0.4340 c3        1 MOL     -0.354572
    132 O20         4.9570   -5.2360   -1.8010 oh        1 MOL     -0.617439
    133 H60         3.1130   -3.3100   -0.0180 hn        1 MOL      0.287699
    134 H61         4.2210   -5.5800    1.5610 h1        1 MOL      0.091217
    135 H62         4.2320   -6.7330   -0.5020 h1        1 MOL      0.037208
    136 H63         4.8620   -5.9980   -2.3760 ho        1 MOL      0.409561
    137 H64         6.8800   -5.3700   -0.3390 hc        1 MOL      0.089754
    138 H65         6.4320   -6.9010    0.4650 hc        1 MOL      0.089754
    139 H66         6.5900   -6.8190   -1.3460 hc        1 MOL      0.089754
    140 N12         5.7640   -2.8940    0.4650 n         1 MOL     -0.487785
    141 C43         6.6880   -1.8020    0.9510 c3        1 MOL      0.093453
    142 C44         6.1620   -0.4230    0.3680 c         1 MOL      0.484317
    143 O21         5.5880   -0.3430   -0.7180 o         1 MOL     -0.520959
    144 C45         8.0960   -2.1260    0.4190 c3        1 MOL      0.004948
    145 C46         9.0950   -1.1250    1.0170 c3        1 MOL     -0.281021
    146 C47        10.5290   -1.6570    0.8590 c3        1 MOL     -0.051712
    147 C48        11.4850   -0.8070    1.6760 c3        1 MOL      0.073736
    148 N13        12.8650   -1.1850    1.5410 n4        1 MOL     -0.102802
    149 H67         5.3830   -2.8670   -0.4670 hn        1 MOL      0.302965
    150 H68         6.6900   -1.7270    2.0340 h1        1 MOL      0.090955
    151 H69         8.0600   -2.1040   -0.6660 hc        1 MOL      0.047600
    152 H70         8.3410   -3.1440    0.7180 hc        1 MOL      0.047600
    153 H71         8.9400   -1.1340    2.1070 hc        1 MOL      0.102908
    154 H72         8.8810   -0.2110    0.4710 hc        1 MOL      0.102908
    155 H73        10.7550   -1.5320   -0.2020 hc        1 MOL      0.049364
    156 H74        10.4600   -2.6800    1.2220 hc        1 MOL      0.049364
    157 H75        11.1890   -0.8800    2.7220 hx        1 MOL      0.060766
    158 H76        11.3370    0.2220    1.3310 hx        1 MOL      0.060766
    159 H77        13.0560   -2.1690    1.4660 hn        1 MOL      0.175034
    160 H78        13.2430   -0.7880    0.6980 hn        1 MOL      0.175034
    161 H79        13.4310   -0.9180    2.3380 hn        1 MOL      0.175034
    162 N14         6.3040    0.6210    1.2060 n         1 MOL     -0.661869
    163 C49         5.7500    1.9760    0.9680 c3        1 MOL      0.483872
    164 C50         4.2890    1.8900    0.4640 c         1 MOL     -0.024135
    165 O22         3.9970    2.4480   -0.5820 o         1 MOL     -0.268583
    166 C51         5.9610    2.9650    2.1370 c3        1 MOL     -0.373337
    167 C52         7.3690    3.4880    2.5100 c3        1 MOL     -0.154181
    168 C53         7.4410    3.8560    3.9790 c         1 MOL      0.698083
    169 O23         8.0170    3.1640    4.8560 o         1 MOL     -0.684994
    170 O24         6.8810    4.9100    4.3130 o         1 MOL     -0.684994
    171 H80         6.6540    0.5140    2.1440 hn        1 MOL      0.343687
    172 H81         6.2810    2.4960    0.1730 h1        1 MOL      0.024765
    173 H82         5.6310    2.4760    3.0510 hc        1 MOL      0.145807
    174 H83         5.2270    3.7630    2.0310 hc        1 MOL      0.145807
    175 H84         7.6630    4.3220    1.8680 hc        1 MOL     -0.000451
    176 H85         8.0110    2.6340    2.2970 hc        1 MOL     -0.000451
    177 N15         3.4260    0.9810    0.9710 n         1 MOL      0.023524
    178 C54         3.2990    0.5350    2.3270 c3        1 MOL     -0.007016
    179 H86         2.3470    0.8770    2.7340 h1        1 MOL      0.026211
    180 H87         3.3370   -0.5530    2.3580 h1        1 MOL      0.026211
    181 H88         4.1150    0.9450    2.9230 h1        1 MOL      0.026211
    182 H89         2.6090    0.7010    0.4430 hn        1 MOL      0.092990
    183 Ca1         4.6100    3.1640   -3.1850 Ca        1 MOL      1.722522
    184 O25         4.3770    0.4960   -2.9620 oh        1 MOL     -0.839523
    185 H90         4.9240   -0.0320   -2.3900 ho        1 MOL      0.420096
    186 H91         3.5160    0.0820   -2.9160 ho        1 MOL      0.420096
    187 O26         5.6510    4.8590   -1.5490 oh        1 MOL     -0.839523
    188 H92         6.5830    5.0300   -1.4030 ho        1 MOL      0.420096
    189 H93         5.2020    5.3540   -0.8550 ho        1 MOL      0.420096
    190 O27         6.5690    4.3760   -4.6000 oh        1 MOL     -0.839523
    191 H94         6.9740    4.0520   -5.4120 ho        1 MOL      0.420096
    192 H95         6.4480    5.3180   -4.7520 ho        1 MOL      0.420096
    193 O28         3.2750    4.9610   -4.6990 oh        1 MOL     -0.839523
    194 H96         2.6240    4.8370   -4.0080 ho        1 MOL      0.420096
    195 H97         2.8370    5.5060   -5.3500 ho        1 MOL      0.420096
    196 O29         5.0030    1.8020   -5.4740 oh        1 MOL     -0.839523
    197 H98         5.1140    2.3740   -6.2460 ho        1 MOL      0.420096
    198 H99         5.1870    0.9210   -5.8020 ho        1 MOL      0.420096
    199 O30         7.0030    2.1630   -2.5000 oh        1 MOL     -0.839523
    200 H100        7.7280    2.6970   -2.1800 ho        1 MOL      0.420096
    201 H101        7.3810    1.2980   -2.6290 ho        1 MOL      0.420096
@<TRIPOS>BOND
     1    1    2 1   
     2    1    4 1   
     3    1    5 1   
     4    1    6 1   
     5    2    3 2   
     6    2    7 1   
     7    7    8 1   
     8    7   15 1   
     9    8    9 1   
    10    8   11 1   
    11    8   16 1   
    12    9   10 2   
    13    9   19 1   
    14   11   12 1   
    15   11   17 1   
    16   11   18 1   
    17   12   13 1   
    18   12   14 1   
    19   19   20 1   
    20   19   28 1   
    21   20   21 1   
    22   20   23 1   
    23   20   29 1   
    24   21   22 2   
    25   21   41 1   
    26   23   24 1   
    27   23   30 1   
    28   23   31 1   
    29   24   25 1   
    30   24   32 1   
    31   24   33 1   
    32   25   26 1   
    33   25   34 1   
    34   25   35 1   
    35   26   27 1   
    36   26   36 1   
    37   26   37 1   
    38   27   38 1   
    39   27   39 1   
    40   27   40 1   
    41   41   42 1   
    42   41   49 1   
    43   42   43 1   
    44   42   45 1   
    45   42   50 1   
    46   43   44 2   
    47   43   53 1   
    48   45   46 1   
    49   45   51 1   
    50   45   52 1   
    51   46   47 1   
    52   46   48 1   
    53   53   54 1   
    54   53   57 1   
    55   54   55 1   
    56   54   58 1   
    57   54   59 1   
    58   55   56 2   
    59   55   60 1   
    60   60   61 1   
    61   60   68 1   
    62   61   62 1   
    63   61   64 1   
    64   61   69 1   
    65   62   63 2   
    66   62   72 1   
    67   64   65 1   
    68   64   70 1   
    69   64   71 1   
    70   65   66 1   
    71   65   67 1   
    72   72   73 1   
    73   72   76 1   
    74   73   74 1   
    75   73   77 1   
    76   73   78 1   
    77   74   75 2   
    78   74   79 1   
    79   79   80 1   
    80   79   86 1   
    81   80   81 1   
    82   80   83 1   
    83   80   87 1   
    84   81   82 2   
    85   81   93 1   
    86   83   84 1   
    87   83   85 1   
    88   83   88 1   
    89   84   90 1   
    90   84   91 1   
    91   84   92 1   
    92   85   89 1   
    93   93   94 1   
    94   93  101 1   
    95   94   95 1   
    96   94   97 1   
    97   94  102 1   
    98   95   96 2   
    99   95  112 1   
   100   97   98 1   
   101   97   99 1   
   102   97  103 1   
   103   98  100 1   
   104   98  104 1   
   105   98  105 1   
   106   99  106 1   
   107   99  107 1   
   108   99  108 1   
   109  100  109 1   
   110  100  110 1   
   111  100  111 1   
   112  112  113 1   
   113  112  119 1   
   114  113  114 1   
   115  113  116 1   
   116  113  120 1   
   117  114  115 2   
   118  114  126 1   
   119  116  117 1   
   120  116  118 1   
   121  116  121 1   
   122  117  123 1   
   123  117  124 1   
   124  117  125 1   
   125  118  122 1   
   126  126  127 1   
   127  126  133 1   
   128  127  128 1   
   129  127  130 1   
   130  127  134 1   
   131  128  129 2   
   132  128  140 1   
   133  130  131 1   
   134  130  132 1   
   135  130  135 1   
   136  131  137 1   
   137  131  138 1   
   138  131  139 1   
   139  132  136 1   
   140  140  141 1   
   141  140  149 1   
   142  141  142 1   
   143  141  144 1   
   144  141  150 1   
   145  142  143 2   
   146  142  162 1   
   147  144  145 1   
   148  144  151 1   
   149  144  152 1   
   150  145  146 1   
   151  145  153 1   
   152  145  154 1   
   153  146  147 1   
   154  146  155 1   
   155  146  156 1   
   156  147  148 1   
   157  147  157 1   
   158  147  158 1   
   159  148  159 1   
   160  148  160 1   
   161  148  161 1   
   162  162  163 1   
   163  162  171 1   
   164  163  164 1   
   165  163  166 1   
   166  163  172 1   
   167  164  165 2   
   168  164  177 1   
   169  166  167 1   
   170  166  173 1   
   171  166  174 1   
   172  167  168 1   
   173  167  175 1   
   174  167  176 1   
   175  168  169 1   
   176  168  170 1   
   177  177  178 1   
   178  177  182 1   
   179  178  179 1   
   180  178  180 1   
   181  178  181 1   
   182  184  185 1   
   183  184  186 1   
   184  187  188 1   
   185  187  189 1   
   186  190  191 1   
   187  190  192 1   
   188  193  194 1   
   189  193  195 1   
   190  196  197 1   
   191  196  198 1   
   192  199  200 1   
   193  199  201 1   
@<TRIPOS>SUBSTRUCTURE
     1 MOL         1 TEMP              0 ****  ****    0 ROOT
