@<TRIPOS>MOLECULE
MOL
  192   187     1     0     0
SMALL
resp


@<TRIPOS>ATOM
      1 C1         -1.2010    8.5030   -1.6190 c3        1 MOL     -0.486427
      2 C2         -0.7450    7.1290   -1.2500 c         1 MOL      0.657183
      3 O1         -0.2010    6.4130   -2.0610 o         1 MOL     -0.551861
      4 H1         -1.5400    8.5070   -2.6550 hc        1 MOL      0.127326
      5 H2         -2.0220    8.8010   -0.9670 hc        1 MOL      0.127326
      6 H3         -0.3740    9.2040   -1.5050 hc        1 MOL      0.127326
      7 N1         -0.7350    6.7720    0.0580 n         1 MOL     -0.365020
      8 C3         -0.3120    5.4130    0.4800 c3        1 MOL     -0.145026
      9 C4         -1.4850    4.3750    0.2820 c         1 MOL      0.451888
     10 O2         -1.2000    3.1690    0.2770 o         1 MOL     -0.444125
     11 C5          0.1470    5.5590    1.9340 c3        1 MOL     -0.143531
     12 C6         -0.9360    6.1380    2.8770 c         1 MOL      0.726034
     13 O3         -1.6170    5.4070    3.6480 o         1 MOL     -0.703227
     14 O4         -1.1680    7.4020    2.8720 o         1 MOL     -0.703227
     15 H4         -1.3000    7.2830    0.7340 hn        1 MOL      0.187831
     16 H5          0.6030    5.1830   -0.0610 h1        1 MOL      0.169901
     17 H6          0.9870    6.2460    1.9800 hc        1 MOL      0.058815
     18 H7          0.4570    4.6060    2.3610 hc        1 MOL      0.058815
     19 N2         -2.7490    4.7650    0.2430 n         1 MOL     -0.376060
     20 C7         -3.9180    3.8210    0.3020 c3        1 MOL      0.080909
     21 C8         -4.0400    2.8450   -0.9160 c         1 MOL      0.634776
     22 O5         -3.8620    3.2700   -2.0930 o         1 MOL     -0.582903
     23 C9         -5.2210    4.5980    0.4780 c3        1 MOL     -0.152576
     24 C10        -5.2170    5.6260    1.6380 c3        1 MOL      0.023666
     25 C11        -4.8580    5.1000    3.0220 c3        1 MOL     -0.075489
     26 C12        -4.9200    6.2570    4.0250 c3        1 MOL      0.130489
     27 N3         -3.7660    7.1200    4.0140 n4        1 MOL     -0.290242
     28 H8         -2.9170    5.7570    0.1430 hn        1 MOL      0.270367
     29 H9         -3.8240    3.1280    1.1420 h1        1 MOL      0.053791
     30 H10        -6.0030    3.8570    0.6000 hc        1 MOL      0.059350
     31 H11        -5.3690    5.2030   -0.4240 hc        1 MOL      0.059350
     32 H12        -6.2050    6.0850    1.7380 hc        1 MOL     -0.004046
     33 H13        -4.5920    6.4870    1.4230 hc        1 MOL     -0.004046
     34 H14        -3.8640    4.6700    3.1610 hc        1 MOL      0.087149
     35 H15        -5.5640    4.3480    3.3760 hc        1 MOL      0.087149
     36 H16        -4.9220    5.7730    4.9920 hx        1 MOL      0.017108
     37 H17        -5.7970    6.8990    4.0840 hx        1 MOL      0.017108
     38 H18        -2.8690    6.7020    3.8660 hn        1 MOL      0.280871
     39 H19        -3.9450    7.8810    3.3750 hn        1 MOL      0.280871
     40 H20        -3.6360    7.4680    4.9540 hn        1 MOL      0.280871
     41 N4         -4.4790    1.6010   -0.8180 n         1 MOL     -0.632685
     42 C13        -4.5470    0.7000    0.3340 c3        1 MOL      0.256412
     43 C14        -5.5720    1.1280    1.4570 c         1 MOL      0.412072
     44 O6         -5.2850    1.6700    2.5200 o         1 MOL     -0.552360
     45 C15        -3.1450    0.5240    0.9080 c3        1 MOL     -0.232320
     46 C16        -2.0970   -0.0470   -0.0040 c         1 MOL      0.837530
     47 O7         -2.3320   -0.3300   -1.1750 o         1 MOL     -0.808879
     48 O8         -0.9730   -0.3790    0.4370 o         1 MOL     -0.808879
     49 H21        -4.3090    1.1160   -1.6880 hn        1 MOL      0.354765
     50 H22        -4.8550   -0.2950    0.0150 h1        1 MOL      0.037797
     51 H23        -3.2690   -0.1350    1.7600 hc        1 MOL      0.080395
     52 H24        -2.7660    1.4130    1.4010 hc        1 MOL      0.080395
     53 N5         -6.8580    1.0660    1.1690 n         1 MOL     -0.278932
     54 C17        -7.4810    0.6590   -0.0930 c3        1 MOL     -0.397430
     55 C18        -8.7080   -0.1720    0.1930 c         1 MOL      0.652719
     56 O9         -9.3580   -0.0860    1.2900 o         1 MOL     -0.577967
     57 H25        -7.4550    1.2310    1.9700 hn        1 MOL      0.299795
     58 H26        -6.7400    0.1720   -0.7360 h1        1 MOL      0.177040
     59 H27        -8.0770    1.3990   -0.6400 h1        1 MOL      0.177040
     60 N6         -9.0840   -1.0570   -0.7490 n         1 MOL     -0.558937
     61 C19        -8.5360   -1.1190   -2.1940 c3        1 MOL      0.241838
     62 C20        -7.2140   -1.8010   -2.2770 c         1 MOL      0.478962
     63 O10        -6.4860   -1.6870   -3.2260 o         1 MOL     -0.548716
     64 C21        -9.5710   -1.6840   -3.2250 c3        1 MOL     -0.184304
     65 C22       -10.9460   -0.9320   -3.1250 c         1 MOL      0.667813
     66 O11       -10.9060    0.2850   -2.8580 o         1 MOL     -0.633500
     67 O12       -12.0100   -1.6330   -3.2680 o         1 MOL     -0.633500
     68 H28        -9.9970   -1.3990   -0.4900 hn        1 MOL      0.324404
     69 H29        -8.4660   -0.0980   -2.5680 h1        1 MOL      0.013788
     70 H30        -9.6860   -2.7440   -3.0020 hc        1 MOL      0.035865
     71 H31        -9.1270   -1.5620   -4.2170 hc        1 MOL      0.035865
     72 N7         -6.8110   -2.4900   -1.1890 n         1 MOL     -0.345654
     73 C23        -5.4780   -3.1560   -1.1630 c3        1 MOL     -0.066457
     74 C24        -4.8380   -3.5180    0.1360 c         1 MOL      0.673785
     75 O13        -5.3560   -3.3030    1.2210 o         1 MOL     -0.517397
     76 H32        -7.3990   -2.6850   -0.3990 hn        1 MOL      0.207423
     77 H33        -4.8090   -2.5930   -1.8070 h1        1 MOL      0.070993
     78 H34        -5.5840   -4.1410   -1.6180 h1        1 MOL      0.070993
     79 N8         -3.6090   -4.0370   -0.0120 n         1 MOL     -0.788689
     80 C25        -2.8930   -4.7880    0.9700 c3        1 MOL      0.067306
     81 C26        -1.4460   -4.2350    1.1450 c         1 MOL      0.993537
     82 O14        -0.9190   -3.7950    0.1180 o         1 MOL     -0.796096
     83 C27        -2.9040   -6.2180    0.4760 c3        1 MOL      0.468655
     84 C28        -2.3770   -7.1440    1.6200 c3        1 MOL     -0.243931
     85 O15        -2.1190   -6.4270   -0.6670 oh        1 MOL     -0.632846
     86 H35        -3.2370   -4.0900   -0.9470 hn        1 MOL      0.284342
     87 H36        -3.3970   -4.7840    1.9310 h1        1 MOL      0.045615
     88 H37        -3.8990   -6.5240    0.1420 h1        1 MOL     -0.019711
     89 H38        -2.6550   -6.0750   -1.3740 ho        1 MOL      0.371377
     90 H39        -3.0750   -6.9710    2.4360 hc        1 MOL      0.051846
     91 H40        -2.4200   -8.1890    1.3200 hc        1 MOL      0.051846
     92 H41        -1.4440   -6.7460    2.0080 hc        1 MOL      0.051846
     93 N9         -0.8770   -4.1230    2.3680 n         1 MOL     -0.690830
     94 C29         0.3390   -3.4270    2.6590 c3        1 MOL     -0.227620
     95 C30         1.5590   -4.2420    2.1920 c         1 MOL      0.698165
     96 O16         1.6430   -5.4530    2.3980 o         1 MOL     -0.586743
     97 C31         0.5200   -3.0690    4.1710 c3        1 MOL      0.126105
     98 C32         0.7640   -4.3230    5.1000 c3        1 MOL     -0.022383
     99 C33        -0.5490   -2.1600    4.5740 c3        1 MOL     -0.050020
    100 C34         1.0150   -3.9760    6.6360 c3        1 MOL     -0.115986
    101 H42        -1.3990   -4.5540    3.1160 hn        1 MOL      0.360810
    102 H43         0.3950   -2.4790    2.1160 h1        1 MOL      0.206650
    103 H44         1.4450   -2.4940    4.2540 hc        1 MOL      0.001955
    104 H45         1.6890   -4.8250    4.8250 hc        1 MOL      0.028188
    105 H46        -0.0430   -5.0510    5.0560 hc        1 MOL      0.028188
    106 H47        -0.5370   -1.7580    5.5920 hc        1 MOL      0.019640
    107 H48        -0.4780   -1.2940    3.9140 hc        1 MOL      0.019640
    108 H49        -1.5330   -2.6280    4.4960 hc        1 MOL      0.019640
    109 H50         1.9320   -3.4030    6.8020 hc        1 MOL      0.029524
    110 H51         0.1900   -3.4800    7.1280 hc        1 MOL      0.029524
    111 H52         1.1650   -4.8390    7.2850 hc        1 MOL      0.029524
    112 N10         2.4520   -3.6420    1.4530 n         1 MOL     -0.403467
    113 C35         3.7210   -4.2020    1.0340 c3        1 MOL     -0.038350
    114 C36         4.9950   -3.3240    1.3520 c         1 MOL      0.663491
    115 O17         6.0370   -3.9500    1.5840 o         1 MOL     -0.532095
    116 C37         3.6860   -4.7470   -0.3840 c3        1 MOL      0.492678
    117 C38         4.5820   -5.9790   -0.6560 c3        1 MOL     -0.223061
    118 O18         4.0000   -3.8320   -1.4370 oh        1 MOL     -0.655834
    119 H53         2.2660   -2.6880    1.1730 hn        1 MOL      0.153915
    120 H54         3.9080   -5.0920    1.6370 h1        1 MOL      0.055011
    121 H55         2.6750   -5.0560   -0.6470 h1        1 MOL     -0.020684
    122 H56         3.2450   -3.2530   -1.4580 ho        1 MOL      0.339774
    123 H57         5.5680   -5.8860   -0.1970 hc        1 MOL      0.048830
    124 H58         4.0940   -6.8710   -0.2710 hc        1 MOL      0.048830
    125 H59         4.6270   -6.2050   -1.7230 hc        1 MOL      0.048830
    126 N11         4.9290   -1.9920    1.4240 n         1 MOL     -0.699695
    127 C39         6.0050   -1.0070    1.7980 c3        1 MOL     -0.062214
    128 C40         7.0160   -0.9090    0.6290 c         1 MOL      0.442164
    129 O19         7.4910   -1.8940    0.1200 o         1 MOL     -0.383894
    130 C41         6.6410   -1.2260    3.2330 c3        1 MOL      0.485441
    131 C42         5.4930   -1.3180    4.2870 c3        1 MOL     -0.310895
    132 O20         7.4750   -0.1630    3.5240 oh        1 MOL     -0.707773
    133 H60         4.0040   -1.5740    1.3600 hn        1 MOL      0.385521
    134 H61         5.5630   -0.0170    1.9240 h1        1 MOL      0.092393
    135 H62         7.2570   -2.1140    3.4030 h1        1 MOL      0.010363
    136 H63         8.0210   -0.3240    4.2990 ho        1 MOL      0.426673
    137 H64         6.0080   -1.2200    5.2390 hc        1 MOL      0.077199
    138 H65         4.8530   -0.4360    4.2280 hc        1 MOL      0.077199
    139 H66         4.7890   -2.1510    4.2410 hc        1 MOL      0.077199
    140 N12         7.5310    0.2630    0.3280 n         1 MOL     -0.490015
    141 C43         8.5100    0.4040   -0.7580 c3        1 MOL     -0.013921
    142 C44         7.8900    0.1580   -2.1400 c         1 MOL      0.319900
    143 O21         8.4980   -0.2840   -3.1470 o         1 MOL     -0.513924
    144 C45         9.0830    1.8410   -0.7350 c3        1 MOL      0.097447
    145 C46         9.8250    2.2540    0.5500 c3        1 MOL      0.004183
    146 C47         9.9520    3.7760    0.5060 c3        1 MOL     -0.046856
    147 C48        11.1970    4.2460    1.2660 c3        1 MOL      0.064841
    148 N13        12.3880    4.1280    0.3950 n4        1 MOL     -0.374231
    149 H67         7.2850    1.0420    0.9220 hn        1 MOL      0.324321
    150 H68         9.3510   -0.2860   -0.6560 h1        1 MOL      0.101148
    151 H69         8.2200    2.4770   -0.9590 hc        1 MOL     -0.004812
    152 H70         9.8100    1.9550   -1.5370 hc        1 MOL     -0.004812
    153 H71        10.7700    1.7240    0.5400 hc        1 MOL      0.011157
    154 H72         9.2770    2.0750    1.4740 hc        1 MOL      0.011157
    155 H73         9.0660    4.1620    1.0120 hc        1 MOL      0.049926
    156 H74        10.0600    4.1130   -0.5250 hc        1 MOL      0.049926
    157 H75        11.3480    3.6250    2.1430 hx        1 MOL      0.066080
    158 H76        11.0650    5.2720    1.6080 hx        1 MOL      0.066080
    159 H77        13.1830    4.4310    0.9410 hn        1 MOL      0.292087
    160 H78        12.4900    3.1560    0.1500 hn        1 MOL      0.292087
    161 H79        12.2720    4.7470   -0.3850 hn        1 MOL      0.292087
    162 N14         6.6100    0.4650   -2.1730 n         1 MOL     -0.048581
    163 C49         5.7960    0.4220   -3.3970 c3        1 MOL     -0.042915
    164 C50         6.2820    1.5280   -4.3790 c         1 MOL      0.537600
    165 O22         6.9450    2.5350   -3.9300 o         1 MOL     -0.542979
    166 C51         4.3060    0.3770   -3.0810 c3        1 MOL     -0.128412
    167 C52         3.8690   -0.1540   -1.6550 c3        1 MOL      0.092103
    168 C53         2.3690   -0.6280   -1.5490 c         1 MOL      0.599636
    169 O23         2.0360   -1.8030   -1.2330 o         1 MOL     -0.673257
    170 O24         1.4550    0.1360   -1.9390 o         1 MOL     -0.673257
    171 H80         6.3280    1.0170   -1.3660 hn        1 MOL      0.173704
    172 H81         6.0230   -0.5040   -3.9210 h1        1 MOL      0.063274
    173 H82         3.9510   -0.2960   -3.8640 hc        1 MOL      0.026418
    174 H83         3.9280    1.3790   -3.2910 hc        1 MOL      0.026418
    175 H84         4.0080    0.6920   -0.9860 hc        1 MOL     -0.000388
    176 H85         4.5700   -0.9460   -1.3760 hc        1 MOL     -0.000388
    177 N15         5.9880    1.2940   -5.6550 n         1 MOL     -0.363170
    178 C54         6.3480    2.1880   -6.7520 c3        1 MOL     -0.143965
    179 H86         5.7360    1.9570   -7.6240 h1        1 MOL      0.094517
    180 H87         6.1760    3.2210   -6.4510 h1        1 MOL      0.094517
    181 H88         7.4010    2.0520   -7.0020 h1        1 MOL      0.094517
    182 H89         5.4540    0.4870   -5.9290 hn        1 MOL      0.292927
    183 Ca1        -0.4540   -1.8930   -1.8980 Ca        1 MOL      1.813744
    184 O25        -1.5020   -0.2520   -3.8400 oh        1 MOL     -0.875746
    185 H90        -2.0620    0.4510   -3.5050 ho        1 MOL      0.434411
    186 H91        -1.5120   -0.1210   -4.7960 ho        1 MOL      0.434411
    187 O26         1.0130   -2.1510   -4.1140 oh        1 MOL     -0.875746
    188 H92         1.7340   -2.7730   -4.0970 ho        1 MOL      0.434411
    189 H93         1.1930   -1.5800   -4.8610 ho        1 MOL      0.434411
    190 O27         0.6320   -4.5420   -2.2770 oh        1 MOL     -0.875746
    191 H94         0.3340   -4.9610   -3.0850 ho        1 MOL      0.434411
    192 H95         0.7900   -5.2700   -1.6710 ho        1 MOL      0.434411
@<TRIPOS>BOND
     1    1    2 1   
     2    1    4 1   
     3    1    5 1   
     4    1    6 1   
     5    2    3 2   
     6    2    7 1   
     7    7    8 1   
     8    7   15 1   
     9    8    9 1   
    10    8   11 1   
    11    8   16 1   
    12    9   10 2   
    13    9   19 1   
    14   11   12 1   
    15   11   17 1   
    16   11   18 1   
    17   12   13 1   
    18   12   14 1   
    19   19   20 1   
    20   19   28 1   
    21   20   21 1   
    22   20   23 1   
    23   20   29 1   
    24   21   22 2   
    25   21   41 1   
    26   23   24 1   
    27   23   30 1   
    28   23   31 1   
    29   24   25 1   
    30   24   32 1   
    31   24   33 1   
    32   25   26 1   
    33   25   34 1   
    34   25   35 1   
    35   26   27 1   
    36   26   36 1   
    37   26   37 1   
    38   27   38 1   
    39   27   39 1   
    40   27   40 1   
    41   41   42 1   
    42   41   49 1   
    43   42   43 1   
    44   42   45 1   
    45   42   50 1   
    46   43   44 2   
    47   43   53 1   
    48   45   46 1   
    49   45   51 1   
    50   45   52 1   
    51   46   47 1   
    52   46   48 1   
    53   53   54 1   
    54   53   57 1   
    55   54   55 1   
    56   54   58 1   
    57   54   59 1   
    58   55   56 2   
    59   55   60 1   
    60   60   61 1   
    61   60   68 1   
    62   61   62 1   
    63   61   64 1   
    64   61   69 1   
    65   62   63 2   
    66   62   72 1   
    67   64   65 1   
    68   64   70 1   
    69   64   71 1   
    70   65   66 1   
    71   65   67 1   
    72   72   73 1   
    73   72   76 1   
    74   73   74 1   
    75   73   77 1   
    76   73   78 1   
    77   74   75 2   
    78   74   79 1   
    79   79   80 1   
    80   79   86 1   
    81   80   81 1   
    82   80   83 1   
    83   80   87 1   
    84   81   82 2   
    85   81   93 1   
    86   83   84 1   
    87   83   85 1   
    88   83   88 1   
    89   84   90 1   
    90   84   91 1   
    91   84   92 1   
    92   85   89 1   
    93   93   94 1   
    94   93  101 1   
    95   94   95 1   
    96   94   97 1   
    97   94  102 1   
    98   95   96 2   
    99   95  112 1   
   100   97   98 1   
   101   97   99 1   
   102   97  103 1   
   103   98  100 1   
   104   98  104 1   
   105   98  105 1   
   106   99  106 1   
   107   99  107 1   
   108   99  108 1   
   109  100  109 1   
   110  100  110 1   
   111  100  111 1   
   112  112  113 1   
   113  112  119 1   
   114  113  114 1   
   115  113  116 1   
   116  113  120 1   
   117  114  115 2   
   118  114  126 1   
   119  116  117 1   
   120  116  118 1   
   121  116  121 1   
   122  117  123 1   
   123  117  124 1   
   124  117  125 1   
   125  118  122 1   
   126  126  127 1   
   127  126  133 1   
   128  127  128 1   
   129  127  130 1   
   130  127  134 1   
   131  128  129 2   
   132  128  140 1   
   133  130  131 1   
   134  130  132 1   
   135  130  135 1   
   136  131  137 1   
   137  131  138 1   
   138  131  139 1   
   139  132  136 1   
   140  140  141 1   
   141  140  149 1   
   142  141  142 1   
   143  141  144 1   
   144  141  150 1   
   145  142  143 2   
   146  142  162 1   
   147  144  145 1   
   148  144  151 1   
   149  144  152 1   
   150  145  146 1   
   151  145  153 1   
   152  145  154 1   
   153  146  147 1   
   154  146  155 1   
   155  146  156 1   
   156  147  148 1   
   157  147  157 1   
   158  147  158 1   
   159  148  159 1   
   160  148  160 1   
   161  148  161 1   
   162  162  163 1   
   163  162  171 1   
   164  163  164 1   
   165  163  166 1   
   166  163  172 1   
   167  164  165 2   
   168  164  177 1   
   169  166  167 1   
   170  166  173 1   
   171  166  174 1   
   172  167  168 1   
   173  167  175 1   
   174  167  176 1   
   175  168  169 1   
   176  168  170 1   
   177  177  178 1   
   178  177  182 1   
   179  178  179 1   
   180  178  180 1   
   181  178  181 1   
   182  184  185 1   
   183  184  186 1   
   184  187  188 1   
   185  187  189 1   
   186  190  191 1   
   187  190  192 1   
@<TRIPOS>SUBSTRUCTURE
     1 MOL         1 TEMP              0 ****  ****    0 ROOT
