@<TRIPOS>MOLECULE
MOL
  179   176     1     0     0
SMALL
resp


@<TRIPOS>ATOM
      1 C1          0.9120   -4.8130    5.7930 c3        1 MOL     -0.399171
      2 C2          1.1990   -4.5560    4.2820 c         1 MOL      0.739157
      3 O1          0.3570   -4.9360    3.4120 o         1 MOL     -0.625304
      4 H1          0.5770   -5.8410    5.9280 hc        1 MOL      0.109878
      5 H2          1.8220   -4.6500    6.3690 hc        1 MOL      0.109878
      6 H3          0.1360   -4.1290    6.1370 hc        1 MOL      0.109878
      7 N1          2.3020   -3.9260    3.9420 n         1 MOL     -0.570335
      8 C3          2.6100   -3.4100    2.5690 c3        1 MOL     -0.064142
      9 C4          2.9670   -4.4810    1.4800 c         1 MOL      0.637022
     10 O2          3.6520   -5.4740    1.7460 o         1 MOL     -0.541511
     11 C5          3.6610   -2.3550    2.6340 c3        1 MOL      0.051253
     12 C6          3.9000   -1.4460    1.4240 c         1 MOL      0.537700
     13 O3          4.3390   -0.3030    1.5750 o         1 MOL     -0.678600
     14 O4          3.6950   -1.8230    0.2720 o         1 MOL     -0.678600
     15 H4          2.9410   -3.7500    4.7070 hn        1 MOL      0.327966
     16 H5          1.6460   -3.0290    2.2520 h1        1 MOL      0.067418
     17 H6          4.5700   -2.9190    2.8400 hc        1 MOL      0.015141
     18 H7          3.5110   -1.6710    3.4740 hc        1 MOL      0.015141
     19 N2          2.5230   -4.3170    0.2190 n         1 MOL     -0.391634
     20 C7          2.7670   -5.3180   -0.8590 c3        1 MOL     -0.024350
     21 C8          4.0090   -5.0860   -1.6760 c         1 MOL      0.489361
     22 O5          4.3940   -5.9520   -2.4800 o         1 MOL     -0.566987
     23 C9          1.5160   -5.5260   -1.8370 c3        1 MOL      0.008691
     24 C10         0.2190   -5.6870   -1.0020 c3        1 MOL     -0.260193
     25 C11        -0.9980   -6.1320   -1.8480 c3        1 MOL      0.102065
     26 C12        -2.2030   -6.5140   -1.0040 c3        1 MOL      0.048681
     27 N3         -3.2920   -7.0880   -1.8360 n4        1 MOL     -0.291870
     28 H8          1.9510   -3.5240   -0.0370 hn        1 MOL      0.223073
     29 H9          2.9640   -6.3060   -0.4380 h1        1 MOL      0.103430
     30 H10         1.6900   -6.3950   -2.4710 hc        1 MOL      0.043756
     31 H11         1.4480   -4.6760   -2.5150 hc        1 MOL      0.043756
     32 H12         0.0230   -4.8240   -0.3780 hc        1 MOL      0.105477
     33 H13         0.3450   -6.5120   -0.2950 hc        1 MOL      0.105477
     34 H14        -0.7740   -6.8790   -2.6060 hc        1 MOL     -0.000498
     35 H15        -1.2620   -5.2700   -2.4760 hc        1 MOL     -0.000498
     36 H16        -2.5170   -5.6140   -0.4920 hx        1 MOL      0.064173
     37 H17        -1.8840   -7.2360   -0.2590 hx        1 MOL      0.064173
     38 H18        -3.4560   -6.4510   -2.6050 hn        1 MOL      0.257438
     39 H19        -3.0520   -8.0170   -2.1360 hn        1 MOL      0.257438
     40 H20        -4.1580   -7.1370   -1.3150 hn        1 MOL      0.257438
     41 N4          4.6140   -3.9240   -1.6110 n         1 MOL     -0.204107
     42 C13         5.7710   -3.4230   -2.4250 c3        1 MOL     -0.006988
     43 C14         6.8050   -2.7210   -1.7010 c         1 MOL      0.487014
     44 O6          7.9450   -2.5380   -2.1250 o         1 MOL     -0.538807
     45 C15         5.1690   -2.5780   -3.5890 c3        1 MOL     -0.179701
     46 C16         4.3390   -1.4460   -2.9240 c         1 MOL      0.856877
     47 O7          3.0940   -1.2830   -3.0420 o         1 MOL     -0.816436
     48 O8          4.9070   -0.6160   -2.1690 o         1 MOL     -0.816436
     49 H21         4.2530   -3.3080   -0.8870 hn        1 MOL      0.052811
     50 H22         6.2830   -4.2970   -2.8140 h1        1 MOL      0.112397
     51 H23         4.6570   -3.1510   -4.3580 hc        1 MOL      0.070082
     52 H24         6.0220   -2.1460   -4.1110 hc        1 MOL      0.070082
     53 N5          6.4960   -2.3670   -0.4960 n         1 MOL     -0.339131
     54 C17         7.3970   -1.8940    0.5580 c3        1 MOL     -0.144817
     55 C18         7.5550   -0.3940    0.5990 c         1 MOL      0.526357
     56 O9          8.3940    0.1200    1.3880 o         1 MOL     -0.588414
     57 H25         5.4960   -2.2710   -0.3900 hn        1 MOL      0.308568
     58 H26         8.4320   -2.2370    0.4420 h1        1 MOL      0.121464
     59 H27         7.1210   -2.1790    1.5750 h1        1 MOL      0.121464
     60 N6          6.8510    0.3750   -0.1950 n         1 MOL     -0.023248
     61 C19         7.1250    1.8060   -0.3950 c3        1 MOL     -0.235715
     62 C20         5.8940    2.7540   -0.1060 c         1 MOL      0.602776
     63 O10         4.7480    2.3630   -0.2190 o         1 MOL     -0.607163
     64 C21         7.5290    2.0430   -1.8330 c3        1 MOL     -0.005820
     65 C22         8.9020    1.5810   -2.2750 c         1 MOL      0.560553
     66 N7          9.0200    1.0650   -3.4930 n         1 MOL     -0.778031
     67 O11         9.8190    1.4770   -1.4840 o         1 MOL     -0.494624
     68 H28         6.1220   -0.0270   -0.7700 hn        1 MOL      0.186911
     69 H29         7.9430    2.1180    0.2500 h1        1 MOL      0.103859
     70 H30         7.5140    3.1120   -2.0060 hc        1 MOL     -0.000438
     71 H31         6.7500    1.5790   -2.4310 hc        1 MOL     -0.000438
     72 H32         8.2520    0.9440   -4.1270 hn        1 MOL      0.369260
     73 H33         9.9780    0.8450   -3.7260 hn        1 MOL      0.369260
     74 N8          6.0770    4.0350    0.3090 n         1 MOL     -0.322264
     75 C23         5.1030    5.1700    0.3590 c3        1 MOL     -0.220368
     76 C24         3.7360    4.9110    1.0690 c         1 MOL      0.706282
     77 O12         3.6570    4.6090    2.2050 o         1 MOL     -0.505067
     78 H34         7.0300    4.3060    0.5330 hn        1 MOL      0.294667
     79 H35         4.6860    5.3570   -0.6410 h1        1 MOL      0.105941
     80 H36         5.6210    6.0740    0.6700 h1        1 MOL      0.105941
     81 N9          2.6160    5.0910    0.3040 n         1 MOL     -0.644775
     82 C25         1.2750    4.7810    0.8390 c3        1 MOL      0.197361
     83 C26         1.1300    3.2620    1.0670 c         1 MOL      0.662796
     84 O13         1.7950    2.4370    0.4830 o         1 MOL     -0.589738
     85 C27         0.1100    5.4050    0.0170 c3        1 MOL     -0.174309
     86 C28         0.2170    6.9070   -0.2610 ca        1 MOL      0.079563
     87 C29         0.3290    7.3790   -1.5970 ca        1 MOL     -0.174888
     88 C30         0.2500    7.7840    0.8450 ca        1 MOL     -0.174888
     89 C31         0.4130    8.7880   -1.7800 ca        1 MOL     -0.225443
     90 C32         0.1910    9.1530    0.6360 ca        1 MOL     -0.225443
     91 C33         0.2680    9.6600   -0.6860 ca        1 MOL      0.319910
     92 O14         0.3290   11.0510   -0.9100 oh        1 MOL     -0.507140
     93 H37         2.6870    5.2690   -0.6910 hn        1 MOL      0.307916
     94 H38         1.2660    5.2780    1.8090 h1        1 MOL      0.077801
     95 H39        -0.8050    5.1780    0.5670 hc        1 MOL      0.057262
     96 H40        -0.0340    4.8190   -0.8910 hc        1 MOL      0.057262
     97 H41         0.1760    6.6870   -2.4130 ha        1 MOL      0.138306
     98 H42         0.2710    7.4130    1.8610 ha        1 MOL      0.138306
     99 H43         0.3930    9.2420   -2.7600 ha        1 MOL      0.156862
    100 H44         0.3190    9.7700    1.5180 ha        1 MOL      0.156862
    101 H45         0.2360   11.4200   -1.7920 ho        1 MOL      0.376135
    102 N10         0.2170    2.8560    1.9350 n         1 MOL     -0.748283
    103 C34         0.0030    1.4680    2.5080 c3        1 MOL      0.280693
    104 C35        -0.1420    0.3490    1.4300 c         1 MOL      0.288744
    105 O15         0.8390   -0.1860    0.9320 o         1 MOL     -0.484620
    106 C36         1.1620    1.1320    3.4710 c3        1 MOL      0.118213
    107 C37         0.9850   -0.1150    4.3530 c3        1 MOL     -0.286365
    108 C38         1.5750    2.4110    4.3860 c3        1 MOL     -0.093415
    109 C39        -0.2260   -0.0410    5.3610 c3        1 MOL     -0.318572
    110 H46        -0.3580    3.5800    2.3470 hn        1 MOL      0.321175
    111 H47        -0.9010    1.5840    3.1120 h1        1 MOL      0.059718
    112 H48         2.0610    0.9500    2.8920 hc        1 MOL      0.023991
    113 H49         1.9370   -0.2470    4.8590 hc        1 MOL      0.145254
    114 H50         0.8280   -1.0060    3.7440 hc        1 MOL      0.145254
    115 H51         0.7300    2.5790    5.0520 hc        1 MOL      0.030366
    116 H52         2.4550    2.2350    5.0130 hc        1 MOL      0.030366
    117 H53         1.7460    3.3160    3.8210 hc        1 MOL      0.030366
    118 H54        -0.2130   -0.9750    5.9150 hc        1 MOL      0.090363
    119 H55        -0.0840    0.7640    6.0850 hc        1 MOL      0.090363
    120 H56        -1.1330    0.0190    4.7670 hc        1 MOL      0.090363
    121 N11        -1.3380   -0.0300    1.1400 n         1 MOL     -0.129039
    122 C40        -1.7460   -0.9410    0.0400 c3        1 MOL     -0.155933
    123 C41        -3.1980   -0.8470   -0.3950 c         1 MOL      0.647896
    124 O16        -3.6420   -1.4700   -1.3720 o         1 MOL     -0.536813
    125 C42        -1.5040   -2.3300    0.5100 c3        1 MOL      0.252449
    126 O17        -2.5070   -2.7620    1.4310 oh        1 MOL     -0.594411
    127 H57        -2.0960    0.4950    1.5660 hn        1 MOL      0.144388
    128 H58        -1.0570   -0.7220   -0.7710 h1        1 MOL      0.067101
    129 H59        -0.5290   -2.5840    0.9250 h1        1 MOL     -0.009065
    130 H60        -1.5770   -2.9310   -0.3940 h1        1 MOL     -0.009065
    131 H61        -2.4220   -3.7020    1.5890 ho        1 MOL      0.397192
    132 N12        -4.0470   -0.0670    0.3360 n         1 MOL     -0.585233
    133 C43        -5.4660    0.0780   -0.0260 c3        1 MOL      0.064180
    134 C44        -5.5700    0.9640   -1.2920 c         1 MOL      0.676409
    135 O18        -4.6680    1.7930   -1.5370 o         1 MOL     -0.586968
    136 C45        -6.1420    0.6870    1.1960 c3        1 MOL     -0.357792
    137 H62        -3.6820    0.4410    1.1280 hn        1 MOL      0.364202
    138 H63        -5.9390   -0.8740   -0.2730 h1        1 MOL      0.139779
    139 H64        -7.2220    0.5980    1.1110 hc        1 MOL      0.118560
    140 H65        -5.7420    0.3190    2.1430 hc        1 MOL      0.118560
    141 H66        -5.9730    1.7650    1.1750 hc        1 MOL      0.118560
    142 N13        -6.6240    0.9230   -2.1470 n         1 MOL     -0.667271
    143 C46        -7.8520    0.1950   -1.9090 c3        1 MOL      0.342367
    144 C47        -9.0820    0.8950   -2.6010 c         1 MOL      0.395815
    145 O19        -8.9350    1.6480   -3.5170 o         1 MOL     -0.498998
    146 C48        -7.6710   -1.2070   -2.5410 c3        1 MOL     -0.207667
    147 H67        -6.6310    1.4190   -3.0240 hn        1 MOL      0.357356
    148 H68        -7.9980    0.0190   -0.8400 h1        1 MOL     -0.054416
    149 H69        -7.5110   -1.1440   -3.6180 hc        1 MOL      0.056152
    150 H70        -6.8880   -1.7640   -2.0270 hc        1 MOL      0.056152
    151 H71        -8.6130   -1.7370   -2.4130 hc        1 MOL      0.056152
    152 N14       -10.3010    0.7030   -2.0430 n         1 MOL     -0.369364
    153 C49       -10.6080    0.0190   -0.7930 c3        1 MOL     -0.067838
    154 C50       -10.1990    0.8830    0.4640 c         1 MOL      0.490891
    155 O20        -9.7510    0.4780    1.5270 o         1 MOL     -0.539329
    156 C51       -12.0390   -0.4850   -0.8100 c3        1 MOL     -0.016135
    157 C52       -12.3980   -1.4140    0.3850 c3        1 MOL     -0.282818
    158 C53       -13.8910   -1.7970    0.2700 c         1 MOL      0.730570
    159 O21       -14.1640   -2.8690   -0.3770 o         1 MOL     -0.658273
    160 O22       -14.8020   -1.2210    0.8880 o         1 MOL     -0.658273
    161 H72       -11.0770    1.0570   -2.5820 hn        1 MOL      0.280316
    162 H73        -9.9980   -0.8790   -0.7670 h1        1 MOL      0.097970
    163 H74       -12.2830   -0.9980   -1.7480 hc        1 MOL      0.034866
    164 H75       -12.5920    0.4380   -0.6960 hc        1 MOL      0.034866
    165 H76       -12.2460   -0.8940    1.3290 hc        1 MOL      0.073961
    166 H77       -11.8870   -2.3690    0.4320 hc        1 MOL      0.073961
    167 N15       -10.1450    2.1950    0.2660 n         1 MOL     -0.207823
    168 C54        -9.4780    3.1920    1.1480 c3        1 MOL     -0.225811
    169 H78        -9.1730    4.0540    0.5560 h1        1 MOL      0.105725
    170 H79       -10.1730    3.5120    1.9240 h1        1 MOL      0.105725
    171 H80        -8.6000    2.7400    1.6100 h1        1 MOL      0.105725
    172 H81       -10.6640    2.5650   -0.5150 hn        1 MOL      0.220832
    173 Ca1         2.8960    0.3360   -0.7230 Ca        1 MOL      1.759405
    174 O23         1.3490   -1.9640   -1.3760 oh        1 MOL     -0.847372
    175 H82         0.4810   -1.7640   -1.7410 ho        1 MOL      0.423897
    176 H83         1.9350   -1.8830   -2.1320 ho        1 MOL      0.423897
    177 O24         0.5880    1.0290   -2.0360 oh        1 MOL     -0.847372
    178 H84        -0.2530    0.6460   -2.2930 ho        1 MOL      0.423897
    179 H85         0.4950    1.9630   -2.2040 ho        1 MOL      0.423897
@<TRIPOS>BOND
     1    1    2 1   
     2    1    4 1   
     3    1    5 1   
     4    1    6 1   
     5    2    3 2   
     6    2    7 1   
     7    7    8 1   
     8    7   15 1   
     9    8    9 1   
    10    8   11 1   
    11    8   16 1   
    12    9   10 2   
    13    9   19 1   
    14   11   12 1   
    15   11   17 1   
    16   11   18 1   
    17   12   13 1   
    18   12   14 1   
    19   19   20 1   
    20   19   28 1   
    21   20   21 1   
    22   20   23 1   
    23   20   29 1   
    24   21   22 2   
    25   21   41 1   
    26   23   24 1   
    27   23   30 1   
    28   23   31 1   
    29   24   25 1   
    30   24   32 1   
    31   24   33 1   
    32   25   26 1   
    33   25   34 1   
    34   25   35 1   
    35   26   27 1   
    36   26   36 1   
    37   26   37 1   
    38   27   38 1   
    39   27   39 1   
    40   27   40 1   
    41   41   42 1   
    42   41   49 1   
    43   42   43 1   
    44   42   45 1   
    45   42   50 1   
    46   43   44 2   
    47   43   53 1   
    48   45   46 1   
    49   45   51 1   
    50   45   52 1   
    51   46   47 1   
    52   46   48 1   
    53   53   54 1   
    54   53   57 1   
    55   54   55 1   
    56   54   58 1   
    57   54   59 1   
    58   55   56 2   
    59   55   60 1   
    60   60   61 1   
    61   60   68 1   
    62   61   62 1   
    63   61   64 1   
    64   61   69 1   
    65   62   63 2   
    66   62   74 1   
    67   64   65 1   
    68   64   70 1   
    69   64   71 1   
    70   65   66 1   
    71   65   67 2   
    72   66   72 1   
    73   66   73 1   
    74   74   75 1   
    75   74   78 1   
    76   75   76 1   
    77   75   79 1   
    78   75   80 1   
    79   76   77 2   
    80   76   81 1   
    81   81   82 1   
    82   81   93 1   
    83   82   83 1   
    84   82   85 1   
    85   82   94 1   
    86   83   84 2   
    87   83  102 1   
    88   85   86 1   
    89   85   95 1   
    90   85   96 1   
    91   86   87 ar  
    92   86   88 ar  
    93   87   89 ar  
    94   87   97 1   
    95   88   90 ar  
    96   88   98 1   
    97   89   91 ar  
    98   89   99 1   
    99   90   91 ar  
   100   90  100 1   
   101   91   92 1   
   102   92  101 1   
   103  102  103 1   
   104  102  110 1   
   105  103  104 1   
   106  103  106 1   
   107  103  111 1   
   108  104  105 2   
   109  104  121 1   
   110  106  107 1   
   111  106  108 1   
   112  106  112 1   
   113  107  109 1   
   114  107  113 1   
   115  107  114 1   
   116  108  115 1   
   117  108  116 1   
   118  108  117 1   
   119  109  118 1   
   120  109  119 1   
   121  109  120 1   
   122  121  122 1   
   123  121  127 1   
   124  122  123 1   
   125  122  125 1   
   126  122  128 1   
   127  123  124 2   
   128  123  132 1   
   129  125  126 1   
   130  125  129 1   
   131  125  130 1   
   132  126  131 1   
   133  132  133 1   
   134  132  137 1   
   135  133  134 1   
   136  133  136 1   
   137  133  138 1   
   138  134  135 2   
   139  134  142 1   
   140  136  139 1   
   141  136  140 1   
   142  136  141 1   
   143  142  143 1   
   144  142  147 1   
   145  143  144 1   
   146  143  146 1   
   147  143  148 1   
   148  144  145 2   
   149  144  152 1   
   150  146  149 1   
   151  146  150 1   
   152  146  151 1   
   153  152  153 1   
   154  152  161 1   
   155  153  154 1   
   156  153  156 1   
   157  153  162 1   
   158  154  155 2   
   159  154  167 1   
   160  156  157 1   
   161  156  163 1   
   162  156  164 1   
   163  157  158 1   
   164  157  165 1   
   165  157  166 1   
   166  158  159 1   
   167  158  160 1   
   168  167  168 1   
   169  167  172 1   
   170  168  169 1   
   171  168  170 1   
   172  168  171 1   
   173  174  175 1   
   174  174  176 1   
   175  177  178 1   
   176  177  179 1   
@<TRIPOS>SUBSTRUCTURE
     1 MOL         1 TEMP              0 ****  ****    0 ROOT
