@<TRIPOS>MOLECULE
MOL
  189   185     1     0     0
SMALL
resp


@<TRIPOS>ATOM
      1 C1          4.5030    4.5180   -3.6720 c3        1 MOL     -0.232178
      2 C2          5.0940    4.0240   -2.3670 c         1 MOL      0.743422
      3 O1          4.3310    3.7640   -1.3970 o         1 MOL     -0.652335
      4 H1          4.8690    5.5230   -3.8780 hc        1 MOL      0.056536
      5 H2          4.8010    3.8500   -4.4810 hc        1 MOL      0.056536
      6 H3          3.4160    4.5360   -3.5950 hc        1 MOL      0.056536
      7 N1          6.3750    3.7100   -2.3550 n         1 MOL     -0.715722
      8 C3          7.0040    2.4760   -1.8210 c3        1 MOL      0.408356
      9 C4          6.0680    1.2720   -1.6200 c         1 MOL      0.085382
     10 O2          5.6870    0.8520   -0.5380 o         1 MOL     -0.417671
     11 C5          7.8810    2.6320   -0.6180 c3        1 MOL     -0.142403
     12 C6          7.3970    3.3390    0.6680 c         1 MOL      0.711683
     13 O3          6.2130    3.5740    0.8250 o         1 MOL     -0.715505
     14 O4          8.2080    3.6810    1.5760 o         1 MOL     -0.715505
     15 H4          6.9470    4.2690   -2.9840 hn        1 MOL      0.332400
     16 H5          7.7420    2.2240   -2.5790 h1        1 MOL     -0.022452
     17 H6          8.7480    3.2590   -0.8120 hc        1 MOL      0.017267
     18 H7          8.2820    1.6710   -0.3060 hc        1 MOL      0.017267
     19 N2          5.8200    0.6080   -2.7670 n         1 MOL     -0.372338
     20 C7          5.1140   -0.7100   -2.9470 c3        1 MOL      0.044216
     21 C8          5.8820   -1.9220   -2.3160 c         1 MOL      0.297067
     22 O5          6.0920   -2.9240   -3.0460 o         1 MOL     -0.524644
     23 C9          3.6650   -0.5620   -2.5290 c3        1 MOL      0.429495
     24 C10         2.8440   -1.8830   -2.8390 c3        1 MOL     -0.136780
     25 C11         2.9880    0.6570   -3.2790 c3        1 MOL     -0.592129
     26 C12         2.9480   -2.4000   -4.2850 c3        1 MOL     -0.445872
     27 H8          6.2290    0.9730   -3.6290 hn        1 MOL      0.291423
     28 H9          5.0860   -0.8820   -4.0200 h1        1 MOL      0.033315
     29 H10         3.5800   -0.4320   -1.4430 hc        1 MOL     -0.196621
     30 H11         1.7890   -1.8020   -2.5540 hc        1 MOL      0.111442
     31 H12         3.1910   -2.6930   -2.2050 hc        1 MOL      0.111442
     32 H13         1.9430    0.4820   -3.5100 hc        1 MOL      0.149156
     33 H14         3.0620    1.5440   -2.6580 hc        1 MOL      0.149156
     34 H15         3.5400    0.9260   -4.1810 hc        1 MOL      0.149156
     35 H16         3.9960   -2.6320   -4.4420 hc        1 MOL      0.103895
     36 H17         2.4470   -3.3560   -4.4640 hc        1 MOL      0.103895
     37 H18         2.4480   -1.7100   -4.9620 hc        1 MOL      0.103895
     38 N3          6.3050   -1.8120   -1.0600 n         1 MOL      0.069156
     39 C13         7.2060   -2.8020   -0.3900 c3        1 MOL     -0.270877
     40 C14         6.6560   -4.1090    0.0960 c         1 MOL      0.683385
     41 O6          7.4090   -5.0700    0.0400 o         1 MOL     -0.542400
     42 C15         7.8070   -2.0290    0.7750 c3        1 MOL     -0.422904
     43 C16         9.0550   -2.7840    1.2880 c         1 MOL      0.799321
     44 O7         10.1530   -2.6650    0.6820 o         1 MOL     -0.713759
     45 O8          9.0830   -3.3540    2.4000 o         1 MOL     -0.713759
     46 H19         5.9640   -1.0030   -0.5600 hn        1 MOL      0.212321
     47 H20         7.9750   -3.0190   -1.1340 h1        1 MOL      0.116715
     48 H21         7.0340   -2.0110    1.5440 hc        1 MOL      0.151943
     49 H22         8.0280   -1.0180    0.4390 hc        1 MOL      0.151943
     50 N4          5.4060   -4.3160    0.5790 n         1 MOL     -0.624517
     51 C17         4.4660   -3.3510    1.0860 c3        1 MOL      0.221112
     52 C18         3.2690   -3.9810    1.8250 c         1 MOL      0.675862
     53 O9          2.9980   -5.1830    1.6770 o         1 MOL     -0.594223
     54 H23         5.2490   -5.2620    0.8830 hn        1 MOL      0.298979
     55 H24         4.1540   -2.7310    0.2520 h1        1 MOL      0.011435
     56 H25         5.0790   -2.7320    1.7520 h1        1 MOL      0.011435
     57 N5          2.4940   -3.2830    2.6520 n         1 MOL     -0.627780
     58 C19         2.5910   -1.7730    3.0360 c3        1 MOL     -0.015318
     59 C20         2.5520   -0.8840    1.7970 c         1 MOL      0.367211
     60 O10         3.5070   -0.2430    1.4710 o         1 MOL     -0.646274
     61 C21         3.7000   -1.4480    4.1220 c3        1 MOL     -0.069136
     62 C22         3.6640   -2.4360    5.2660 c         1 MOL      0.714719
     63 O11         4.7190   -2.6430    5.8860 o         1 MOL     -0.710587
     64 O12         2.5550   -2.7680    5.7660 o         1 MOL     -0.710587
     65 H26         1.8120   -3.8600    3.1240 hn        1 MOL      0.336881
     66 H27         1.6960   -1.6250    3.6540 h1        1 MOL      0.052717
     67 H28         3.5260   -0.5300    4.6880 hc        1 MOL      0.013967
     68 H29         4.7090   -1.4470    3.7020 hc        1 MOL      0.013967
     69 N6          1.5720   -0.9020    0.9670 n         1 MOL     -0.073358
     70 C23         0.2200   -1.4060    1.0700 c3        1 MOL     -0.222075
     71 C24        -0.0640   -2.5780    0.1220 c         1 MOL      0.492552
     72 O13         0.5620   -2.8070   -0.9270 o         1 MOL     -0.521794
     73 H30         1.6900   -0.2190    0.2180 hn        1 MOL      0.211919
     74 H31        -0.4560   -0.5680    0.9340 h1        1 MOL      0.105567
     75 H32         0.0390   -1.7610    2.0880 h1        1 MOL      0.105567
     76 N7         -1.1200   -3.3020    0.3670 n         1 MOL     -0.351485
     77 C25        -1.7220   -4.4890   -0.2680 c3        1 MOL      0.026803
     78 C26        -2.3500   -4.2240   -1.6670 c         1 MOL      0.360302
     79 O14        -2.4540   -5.1880   -2.4260 o         1 MOL     -0.519843
     80 C27        -2.8770   -5.1160    0.6070 c3        1 MOL      0.016834
     81 C28        -4.2170   -4.3610    0.5400 c3        1 MOL     -0.103022
     82 C29        -5.1340   -4.8690    1.7320 c         1 MOL      0.619847
     83 N8         -6.3670   -5.0080    1.4390 n         1 MOL     -0.758999
     84 O15        -4.7200   -4.9800    2.8440 o         1 MOL     -0.557866
     85 H33        -1.6900   -3.1250    1.1850 hn        1 MOL      0.229841
     86 H34        -0.9700   -5.2700   -0.3770 h1        1 MOL      0.119210
     87 H35        -2.5780   -5.1920    1.6520 hc        1 MOL      0.023034
     88 H36        -3.0310   -6.1170    0.2240 hc        1 MOL      0.023034
     89 H37        -4.7420   -4.5390   -0.3980 hc        1 MOL      0.030973
     90 H38        -4.0720   -3.2950    0.7220 hc        1 MOL      0.030973
     91 H39        -6.6970   -4.8940    0.4960 hn        1 MOL      0.356881
     92 H40        -7.0210   -5.2880    2.1620 hn        1 MOL      0.356881
     93 N9         -2.7700   -3.0200   -2.0160 n         1 MOL     -0.052939
     94 C30        -3.2890   -2.5210   -3.2980 c3        1 MOL     -0.289744
     95 C31        -4.6400   -1.8310   -3.3090 c         1 MOL      0.630373
     96 O16        -5.1860   -1.6250   -4.4000 o         1 MOL     -0.554595
     97 C32        -2.2800   -1.6430   -4.0660 c3        1 MOL      0.377545
     98 C33        -1.0210   -2.3830   -4.4400 c3        1 MOL     -0.366618
     99 C34        -1.9150   -0.2930   -3.4010 c3        1 MOL     -0.366618
    100 H41        -2.6910   -2.3220   -1.3000 hn        1 MOL      0.134281
    101 H42        -3.4800   -3.3340   -3.9950 h1        1 MOL      0.132540
    102 H43        -2.7300   -1.4090   -5.0340 hc        1 MOL     -0.035709
    103 H44        -0.4710   -2.4980   -3.5030 hc        1 MOL      0.091587
    104 H45        -1.2330   -3.3990   -4.7720 hc        1 MOL      0.091587
    105 H46        -0.3930   -1.8000   -5.1230 hc        1 MOL      0.091587
    106 H47        -1.2760   -0.6040   -2.5780 hc        1 MOL      0.091587
    107 H48        -1.4190    0.4150   -4.0700 hc        1 MOL      0.091587
    108 H49        -2.7970    0.1940   -2.9850 hc        1 MOL      0.091587
    109 N10        -5.2790   -1.4850   -2.1650 n         1 MOL     -0.503652
    110 C35        -6.6140   -0.8820   -2.0310 c3        1 MOL      0.017410
    111 C36        -6.6330    0.5300   -1.4770 c         1 MOL      0.604454
    112 O17        -7.4290    1.3830   -1.8820 o         1 MOL     -0.565150
    113 C37        -7.7190   -1.7520   -1.3320 c3        1 MOL     -0.183000
    114 C38        -7.6200   -3.2600   -1.7660 c         1 MOL      0.607626
    115 N11        -7.6780   -3.5080   -3.0600 n         1 MOL     -0.764249
    116 O18        -7.4270   -4.1800   -1.0040 o         1 MOL     -0.560554
    117 H50        -4.7540   -1.5180   -1.3000 hn        1 MOL      0.253068
    118 H51        -6.9620   -0.8170   -3.0660 h1        1 MOL      0.068027
    119 H52        -8.7170   -1.3810   -1.5350 hc        1 MOL      0.083411
    120 H53        -7.5780   -1.7900   -0.2450 hc        1 MOL      0.083411
    121 H54        -7.7710   -2.7460   -3.7170 hn        1 MOL      0.378555
    122 H55        -7.5490   -4.4790   -3.2770 hn        1 MOL      0.378555
    123 N12        -5.7780    0.7600   -0.5090 n         1 MOL     -0.439124
    124 C39        -5.9390    1.7800    0.4460 c3        1 MOL     -0.031219
    125 C40        -4.6910    2.6050    0.6730 c         1 MOL      0.775091
    126 O19        -3.6720    1.9840    0.8830 o         1 MOL     -0.566679
    127 C41        -6.2760    1.2170    1.8420 c3        1 MOL     -0.202174
    128 C42        -7.5120    0.3880    1.9260 ca        1 MOL      0.148555
    129 C43        -8.7440    1.0970    1.8050 ca        1 MOL     -0.218715
    130 C44        -7.5120   -0.9840    2.0200 ca        1 MOL     -0.218715
    131 C45        -9.9300    0.3820    1.8140 ca        1 MOL     -0.197521
    132 C46        -8.7320   -1.6890    2.1070 ca        1 MOL     -0.197521
    133 C47        -9.9610   -0.9910    1.9370 ca        1 MOL      0.285823
    134 O20       -11.1280   -1.5910    2.1260 oh        1 MOL     -0.501862
    135 H56        -5.0210    0.1080   -0.3290 hn        1 MOL      0.273631
    136 H57        -6.6960    2.5000    0.1060 h1        1 MOL      0.062363
    137 H58        -6.4330    2.0760    2.4960 hc        1 MOL      0.103548
    138 H59        -5.4310    0.6200    2.1800 hc        1 MOL      0.103548
    139 H60        -8.8520    2.1680    1.7540 ha        1 MOL      0.149922
    140 H61        -6.6350   -1.5850    2.1760 ha        1 MOL      0.149922
    141 H62       -10.8700    0.9160    1.7630 ha        1 MOL      0.105690
    142 H63        -8.7680   -2.7650    2.1810 ha        1 MOL      0.105690
    143 H64       -11.8930   -1.0150    2.1590 ho        1 MOL      0.371790
    144 N13        -4.7970    3.9190    0.7300 n         1 MOL     -0.725296
    145 C48        -3.8260    4.9090    1.0850 c3        1 MOL      0.249022
    146 C49        -2.5380    5.0160    0.1650 c         1 MOL      0.232959
    147 O21        -1.6870    5.8780    0.3270 o         1 MOL     -0.458778
    148 C50        -3.5000    4.9250    2.5940 c3        1 MOL      0.014629
    149 C51        -4.7330    4.9150    3.5360 c3        1 MOL     -0.122386
    150 C52        -4.4060    4.8210    5.0300 c         1 MOL      0.655473
    151 O22        -3.8880    5.8270    5.5590 o         1 MOL     -0.712344
    152 O23        -4.6260    3.7770    5.7020 o         1 MOL     -0.712344
    153 H65        -5.7220    4.3310    0.6870 hn        1 MOL      0.339417
    154 H66        -4.4250    5.8010    0.9000 h1        1 MOL      0.037259
    155 H67        -3.0170    5.8700    2.8360 hc        1 MOL      0.041565
    156 H68        -2.8290    4.0660    2.6940 hc        1 MOL      0.041565
    157 H69        -5.4350    4.1100    3.2990 hc        1 MOL     -0.022357
    158 H70        -5.1710    5.8990    3.4020 hc        1 MOL     -0.022357
    159 N14        -2.4090    4.1700   -0.9150 n         1 MOL     -0.260748
    160 C53        -1.2360    4.0330   -1.8160 c3        1 MOL      0.108983
    161 C54        -1.4250    4.5420   -3.2750 c         1 MOL      0.326072
    162 O24        -0.4310    4.7660   -3.9840 o         1 MOL     -0.497891
    163 C55        -0.7460    2.5520   -1.8820 c3        1 MOL      0.010565
    164 C56        -0.4030    2.0130   -0.5090 c3        1 MOL      0.237999
    165 C57         1.0620    2.3570   -0.0640 c         1 MOL      0.459733
    166 O25         1.4230    3.3690    0.5870 o         1 MOL     -0.603784
    167 O26         1.9930    1.5320   -0.3470 o         1 MOL     -0.603784
    168 H71        -3.0970    3.4280   -0.9610 hn        1 MOL      0.171494
    169 H72        -0.4400    4.6620   -1.4080 h1        1 MOL      0.125507
    170 H73         0.1130    2.3860   -2.5290 hc        1 MOL     -0.029161
    171 H74        -1.6720    2.0120   -2.0820 hc        1 MOL     -0.029161
    172 H75        -0.4250    0.9240   -0.5450 hc        1 MOL     -0.073190
    173 H76        -1.1150    2.3560    0.2400 hc        1 MOL     -0.073190
    174 N15        -2.6060    5.0370   -3.5380 n         1 MOL     -0.140086
    175 C58        -2.9490    5.9680   -4.5900 c3        1 MOL     -0.335799
    176 H77        -2.5710    6.9590   -4.3350 h1        1 MOL      0.125897
    177 H78        -2.5010    5.6390   -5.5280 h1        1 MOL      0.125897
    178 H79        -4.0330    6.0110   -4.6990 h1        1 MOL      0.125897
    179 H80        -3.3800    4.7760   -2.9400 hn        1 MOL      0.187166
    180 Ca1         4.0510    2.4590    0.9470 Ca        1 MOL      1.811931
    181 O27         5.6380    1.6460    3.1730 oh        1 MOL     -0.848100
    182 H81         6.4690    1.1650    3.2660 ho        1 MOL      0.416071
    183 H82         5.2480    1.6030    4.0530 ho        1 MOL      0.416071
    184 O28         2.6760    2.1070    3.3800 oh        1 MOL     -0.848100
    185 H83         2.9770    1.4530    4.0050 ho        1 MOL      0.416071
    186 H84         1.7780    2.2920    3.6390 ho        1 MOL      0.416071
    187 O29         3.8790    4.8240    2.1020 oh        1 MOL     -0.848100
    188 H85         4.4480    4.9590    2.8580 ho        1 MOL      0.416071
    189 H86         3.4600    5.6730    1.9590 ho        1 MOL      0.416071
@<TRIPOS>BOND
     1    1    2 1   
     2    1    4 1   
     3    1    5 1   
     4    1    6 1   
     5    2    3 2   
     6    2    7 1   
     7    7    8 1   
     8    7   15 1   
     9    8    9 1   
    10    8   11 1   
    11    8   16 1   
    12    9   10 2   
    13    9   19 1   
    14   11   12 1   
    15   11   17 1   
    16   11   18 1   
    17   12   13 1   
    18   12   14 1   
    19   19   20 1   
    20   19   27 1   
    21   20   21 1   
    22   20   23 1   
    23   20   28 1   
    24   21   22 2   
    25   21   38 1   
    26   23   24 1   
    27   23   25 1   
    28   23   29 1   
    29   24   26 1   
    30   24   30 1   
    31   24   31 1   
    32   25   32 1   
    33   25   33 1   
    34   25   34 1   
    35   26   35 1   
    36   26   36 1   
    37   26   37 1   
    38   38   39 1   
    39   38   46 1   
    40   39   40 1   
    41   39   42 1   
    42   39   47 1   
    43   40   41 2   
    44   40   50 1   
    45   42   43 1   
    46   42   48 1   
    47   42   49 1   
    48   43   44 1   
    49   43   45 1   
    50   50   51 1   
    51   50   54 1   
    52   51   52 1   
    53   51   55 1   
    54   51   56 1   
    55   52   53 2   
    56   52   57 1   
    57   57   58 1   
    58   57   65 1   
    59   58   59 1   
    60   58   61 1   
    61   58   66 1   
    62   59   60 2   
    63   59   69 1   
    64   61   62 1   
    65   61   67 1   
    66   61   68 1   
    67   62   63 1   
    68   62   64 1   
    69   69   70 1   
    70   69   73 1   
    71   70   71 1   
    72   70   74 1   
    73   70   75 1   
    74   71   72 2   
    75   71   76 1   
    76   76   77 1   
    77   76   85 1   
    78   77   78 1   
    79   77   80 1   
    80   77   86 1   
    81   78   79 2   
    82   78   93 1   
    83   80   81 1   
    84   80   87 1   
    85   80   88 1   
    86   81   82 1   
    87   81   89 1   
    88   81   90 1   
    89   82   83 1   
    90   82   84 2   
    91   83   91 1   
    92   83   92 1   
    93   93   94 1   
    94   93  100 1   
    95   94   95 1   
    96   94   97 1   
    97   94  101 1   
    98   95   96 2   
    99   95  109 1   
   100   97   98 1   
   101   97   99 1   
   102   97  102 1   
   103   98  103 1   
   104   98  104 1   
   105   98  105 1   
   106   99  106 1   
   107   99  107 1   
   108   99  108 1   
   109  109  110 1   
   110  109  117 1   
   111  110  111 1   
   112  110  113 1   
   113  110  118 1   
   114  111  112 2   
   115  111  123 1   
   116  113  114 1   
   117  113  119 1   
   118  113  120 1   
   119  114  115 1   
   120  114  116 2   
   121  115  121 1   
   122  115  122 1   
   123  123  124 1   
   124  123  135 1   
   125  124  125 1   
   126  124  127 1   
   127  124  136 1   
   128  125  126 2   
   129  125  144 1   
   130  127  128 1   
   131  127  137 1   
   132  127  138 1   
   133  128  129 ar  
   134  128  130 ar  
   135  129  131 ar  
   136  129  139 1   
   137  130  132 ar  
   138  130  140 1   
   139  131  133 ar  
   140  131  141 1   
   141  132  133 ar  
   142  132  142 1   
   143  133  134 1   
   144  134  143 1   
   145  144  145 1   
   146  144  153 1   
   147  145  146 1   
   148  145  148 1   
   149  145  154 1   
   150  146  147 2   
   151  146  159 1   
   152  148  149 1   
   153  148  155 1   
   154  148  156 1   
   155  149  150 1   
   156  149  157 1   
   157  149  158 1   
   158  150  151 1   
   159  150  152 1   
   160  159  160 1   
   161  159  168 1   
   162  160  161 1   
   163  160  163 1   
   164  160  169 1   
   165  161  162 2   
   166  161  174 1   
   167  163  164 1   
   168  163  170 1   
   169  163  171 1   
   170  164  165 1   
   171  164  172 1   
   172  164  173 1   
   173  165  166 1   
   174  165  167 1   
   175  174  175 1   
   176  174  179 1   
   177  175  176 1   
   178  175  177 1   
   179  175  178 1   
   180  181  182 1   
   181  181  183 1   
   182  184  185 1   
   183  184  186 1   
   184  187  188 1   
   185  187  189 1   
@<TRIPOS>SUBSTRUCTURE
     1 MOL         1 TEMP              0 ****  ****    0 ROOT
