@<TRIPOS>MOLECULE
MOL
  186   183     1     0     0
SMALL
resp


@<TRIPOS>ATOM
      1 C1        -11.9270    4.4460    4.8220 c3        1 MOL     -0.121949
      2 C2        -12.0300    3.3780    3.6990 c         1 MOL      0.464129
      3 O1        -12.4680    2.1900    3.9510 o         1 MOL     -0.546696
      4 H1        -10.9140    4.8480    4.8490 hc        1 MOL      0.037738
      5 H2        -12.6330    5.2530    4.6230 hc        1 MOL      0.037738
      6 H3        -12.1610    3.9870    5.7840 hc        1 MOL      0.037738
      7 N1        -11.5650    3.6980    2.4880 n         1 MOL      0.268364
      8 C3        -11.6760    3.0190    1.2410 c3        1 MOL     -1.281786
      9 C4        -10.5040    2.0220    1.1570 c         1 MOL      0.531145
     10 O2         -9.3890    2.3650    1.6080 o         1 MOL     -0.488244
     11 C5        -11.9080    4.0070    0.1310 c3        1 MOL      0.283863
     12 C6        -11.0820    5.2870    0.1800 c         1 MOL      0.614608
     13 O3         -9.8920    5.2770    0.5920 o         1 MOL     -0.672659
     14 O4        -11.6500    6.3020   -0.1670 o         1 MOL     -0.672659
     15 H4        -11.1120    4.5940    2.3860 hn        1 MOL      0.049450
     16 H5        -12.5530    2.3670    1.2870 h1        1 MOL      0.308417
     17 H6        -12.9590    4.3010    0.0860 hc        1 MOL      0.044149
     18 H7        -11.7600    3.5880   -0.8690 hc        1 MOL      0.044149
     19 N2        -10.7120    0.8670    0.5030 n         1 MOL      0.129962
     20 C7        -10.0110   -0.4130    0.6100 c3        1 MOL     -0.758249
     21 C8         -8.5710   -0.4490    0.1030 c         1 MOL      0.979874
     22 O5         -7.8430   -1.3990    0.5060 o         1 MOL     -0.571181
     23 C9        -10.8240   -1.5280   -0.0740 c3        1 MOL     -0.240994
     24 C10       -10.8740   -1.5540   -1.5800 c3        1 MOL     -0.021895
     25 C11       -12.1170   -2.0860   -2.2030 c3        1 MOL      0.061862
     26 C12       -12.2370   -1.8750   -3.7090 c3        1 MOL      0.024044
     27 N3        -11.6000   -3.0200   -4.4960 n4        1 MOL     -0.390769
     28 H8        -11.5430    0.8820   -0.0780 hn        1 MOL      0.236932
     29 H9         -9.9280   -0.5890    1.6830 h1        1 MOL      0.292954
     30 H10       -11.8370   -1.5960    0.3370 hc        1 MOL      0.143410
     31 H11       -10.4790   -2.5020    0.2860 hc        1 MOL      0.143410
     32 H12       -10.0340   -2.1640   -1.9230 hc        1 MOL      0.055910
     33 H13       -10.8330   -0.5180   -1.8920 hc        1 MOL      0.055910
     34 H14       -12.9600   -1.5230   -1.8020 hc        1 MOL      0.007401
     35 H15       -12.3370   -3.1150   -1.8980 hc        1 MOL      0.007401
     36 H16       -11.7910   -0.9300   -4.0030 hx        1 MOL      0.082736
     37 H17       -13.2840   -1.7960   -3.9950 hx        1 MOL      0.082736
     38 H18       -12.1420   -3.8660   -4.4170 hn        1 MOL      0.325871
     39 H19       -11.6700   -2.7270   -5.4600 hn        1 MOL      0.325871
     40 H20       -10.6560   -3.2570   -4.2620 hn        1 MOL      0.325871
     41 N4         -8.1150    0.4600   -0.8270 n         1 MOL     -0.521364
     42 C13        -6.6250    0.4830   -1.1230 c3        1 MOL     -0.365594
     43 C14        -5.8500    1.1300   -0.0020 c         1 MOL      0.437905
     44 O6         -6.3970    1.9890    0.7230 o         1 MOL     -0.611321
     45 C15        -6.3720    1.1870   -2.4520 c3        1 MOL      0.175399
     46 C16        -7.0280    2.5430   -2.4970 c         1 MOL      0.542116
     47 O7         -6.8370    3.1900   -3.6260 o         1 MOL     -0.677813
     48 O8         -7.7430    3.0460   -1.5710 o         1 MOL     -0.677813
     49 H21        -8.7420    1.1940   -1.1240 hn        1 MOL      0.258835
     50 H22        -6.2640   -0.5310   -1.2570 h1        1 MOL      0.184206
     51 H23        -6.6150    0.5450   -3.3040 hc        1 MOL      0.027014
     52 H24        -5.3120    1.3610   -2.6040 hc        1 MOL      0.027014
     53 N5         -4.5830    0.7050    0.2730 n         1 MOL     -0.245704
     54 C17        -3.7370   -0.2650   -0.4910 c3        1 MOL     -0.159257
     55 C18        -3.9780   -1.7780   -0.2860 c         1 MOL      0.776334
     56 O9         -4.4230   -2.2560    0.7380 o         1 MOL     -0.550611
     57 H25        -4.1480    1.1930    1.0450 hn        1 MOL      0.247334
     58 H26        -2.6900   -0.0750   -0.2690 h1        1 MOL      0.089963
     59 H27        -3.8720    0.1040   -1.5130 h1        1 MOL      0.089963
     60 N6         -3.4870   -2.5250   -1.2410 n         1 MOL     -0.702594
     61 C19        -3.6680   -3.9570   -1.4910 c3        1 MOL      0.001148
     62 C20        -2.3680   -4.6040   -1.9100 c         1 MOL      0.675111
     63 O10        -1.6530   -4.1570   -2.8060 o         1 MOL     -0.519507
     64 C21        -4.6740   -3.9810   -2.5600 c3        1 MOL      0.013718
     65 C22        -5.0120   -5.4310   -2.9790 c         1 MOL      0.578308
     66 O11        -5.4950   -5.5260   -4.1720 o         1 MOL     -0.665286
     67 O12        -4.7360   -6.4610   -2.2430 o         1 MOL     -0.665286
     68 H28        -2.9660   -2.0400   -1.9620 hn        1 MOL      0.323895
     69 H29        -4.1570   -4.3950   -0.6090 h1        1 MOL      0.067340
     70 H30        -4.2410   -3.4360   -3.4090 hc        1 MOL     -0.003000
     71 H31        -5.6190   -3.4860   -2.3340 hc        1 MOL     -0.003000
     72 N7         -1.9920   -5.7160   -1.2700 n         1 MOL     -0.406045
     73 C23        -0.8230   -6.5000   -1.6150 c3        1 MOL     -0.019753
     74 C24         0.4190   -5.9900   -0.9210 c         1 MOL      0.427049
     75 O13         1.4340   -5.7170   -1.6060 o         1 MOL     -0.511636
     76 H32        -2.6140   -6.1600   -0.6150 hn        1 MOL      0.250845
     77 H33        -0.7390   -6.5850   -2.7020 h1        1 MOL      0.091889
     78 H34        -1.0320   -7.5470   -1.3810 h1        1 MOL      0.091889
     79 N8          0.3800   -5.9050    0.4140 n         1 MOL     -0.447735
     80 C25         1.5500   -5.3290    1.2760 c3        1 MOL      0.064245
     81 C26         1.6750   -3.8030    1.0920 c         1 MOL      0.600065
     82 O14         0.6830   -3.1820    0.6000 o         1 MOL     -0.547568
     83 C27         1.3360   -5.5220    2.7880 c3        1 MOL      0.199955
     84 C28         0.1020   -4.8150    3.4740 c3        1 MOL     -0.415311
     85 O15         1.2310   -6.9190    2.9120 oh        1 MOL     -0.608035
     86 H35        -0.5070   -6.0830    0.8490 hn        1 MOL      0.283648
     87 H36         2.4890   -5.7490    0.9280 h1        1 MOL      0.095723
     88 H37         2.2780   -5.1680    3.1960 h1        1 MOL     -0.006756
     89 H38         1.0770   -7.1990    3.8180 ho        1 MOL      0.400215
     90 H39         0.1220   -3.7540    3.2250 hc        1 MOL      0.125086
     91 H40        -0.7530   -5.3380    3.0420 hc        1 MOL      0.125086
     92 H41         0.1020   -4.8660    4.5650 hc        1 MOL      0.125086
     93 N9          2.7560   -3.1080    1.4630 n         1 MOL     -0.304882
     94 C29         3.0090   -1.6690    1.2740 c3        1 MOL     -0.088469
     95 C30         4.2730   -1.3970    0.5600 c         1 MOL      0.488135
     96 O16         4.3240   -0.6800   -0.4710 o         1 MOL     -0.496693
     97 C31         3.0130   -0.8660    2.6310 c3        1 MOL     -0.075643
     98 C32         1.8850   -1.3430    3.5130 c3        1 MOL      0.174984
     99 C33         3.1070    0.6300    2.4760 c3        1 MOL      0.083939
    100 C34         1.6290   -0.5240    4.7990 c3        1 MOL     -0.400109
    101 H42         3.5010   -3.6360    1.9030 hn        1 MOL      0.196853
    102 H43         2.1830   -1.3370    0.6410 h1        1 MOL      0.108921
    103 H44         3.9470   -1.1480    3.0990 hc        1 MOL      0.018711
    104 H45         2.1190   -2.3250    3.9160 hc        1 MOL      0.008797
    105 H46         0.9090   -1.2500    3.0290 hc        1 MOL      0.008797
    106 H47         4.0080    0.8360    1.8980 hc        1 MOL     -0.003427
    107 H48         2.2810    1.1550    2.0070 hc        1 MOL     -0.003427
    108 H49         3.3470    1.0630    3.4470 hc        1 MOL     -0.003427
    109 H50         2.5290   -0.5420    5.4220 hc        1 MOL      0.092138
    110 H51         1.2310    0.4300    4.4530 hc        1 MOL      0.092138
    111 H52         0.7820   -1.0530    5.2370 hc        1 MOL      0.092138
    112 N10         5.3480   -1.9190    1.1140 n         1 MOL     -0.358965
    113 C35         6.6460   -2.0130    0.4450 c3        1 MOL      0.017930
    114 C36         7.8180   -1.9130    1.3850 c         1 MOL      0.552548
    115 O17         7.6500   -1.9570    2.6170 o         1 MOL     -0.529807
    116 C37         6.6450   -3.3580   -0.2380 c3        1 MOL      0.298987
    117 C38         5.4070   -3.7270   -1.0290 c3        1 MOL     -0.250008
    118 O18         7.7170   -3.5360   -1.1240 oh        1 MOL     -0.617035
    119 H53         5.3120   -2.3370    2.0380 hn        1 MOL      0.227775
    120 H54         6.6640   -1.1520   -0.2220 h1        1 MOL      0.123115
    121 H55         6.7210   -4.0850    0.5740 h1        1 MOL     -0.020530
    122 H56         7.9330   -4.4720   -1.1330 ho        1 MOL      0.380089
    123 H57         5.5560   -4.4790   -1.8000 hc        1 MOL      0.081661
    124 H58         4.6030   -4.0480   -0.3700 hc        1 MOL      0.081661
    125 H59         5.0870   -2.9090   -1.6670 hc        1 MOL      0.081661
    126 N11         9.0830   -1.7970    0.9440 n         1 MOL     -0.580624
    127 C39        10.3060   -1.6490    1.6980 c3        1 MOL      0.227079
    128 C40        10.6050   -0.1170    1.7330 c         1 MOL      0.557209
    129 O19        11.0370    0.4240    2.7650 o         1 MOL     -0.587053
    130 C41        11.4900   -2.3970    1.0480 c3        1 MOL      0.138553
    131 C42        12.9560   -2.2570    1.6400 c3        1 MOL     -0.204876
    132 O20        11.5370   -2.1030   -0.3180 oh        1 MOL     -0.578463
    133 H60         9.2000   -1.8250   -0.0600 hn        1 MOL      0.262220
    134 H61        10.1530   -1.9830    2.7190 h1        1 MOL      0.067493
    135 H62        11.1950   -3.4280    1.2470 h1        1 MOL      0.044463
    136 H63        11.7700   -2.9670   -0.6690 ho        1 MOL      0.398704
    137 H64        12.8490   -2.5980    2.6680 hc        1 MOL      0.054857
    138 H65        13.7130   -2.8180    1.0980 hc        1 MOL      0.054857
    139 H66        13.2530   -1.1970    1.6250 hc        1 MOL      0.054857
    140 N12        10.4760    0.5930    0.5880 n         1 MOL     -0.446361
    141 C43        10.5270    2.0490    0.3780 c3        1 MOL      0.270280
    142 C44         9.2780    2.4560   -0.4770 c         1 MOL      0.343019
    143 O21         8.5120    1.6220   -0.9560 o         1 MOL     -0.458738
    144 C45        11.7570    2.4860   -0.3690 c3        1 MOL     -0.059123
    145 C46        13.0360    2.0110    0.3250 c3        1 MOL     -0.164162
    146 C47        14.1870    2.8400   -0.1990 c3        1 MOL     -0.148912
    147 C48        14.4820    2.6860   -1.6450 c3        1 MOL     -0.010166
    148 N13        15.2930    1.4840   -1.9780 n4        1 MOL     -0.205923
    149 H67        10.2000    0.0600   -0.2250 hn        1 MOL      0.258774
    150 H68        10.4930    2.6170    1.3100 h1        1 MOL      0.041897
    151 H69        11.7710    3.5740   -0.3710 hc        1 MOL      0.037065
    152 H70        11.7270    2.0870   -1.3830 hc        1 MOL      0.037065
    153 H71        13.1440    0.9350    0.1850 hc        1 MOL      0.082494
    154 H72        12.9860    2.3380    1.3630 hc        1 MOL      0.082494
    155 H73        15.0000    2.5720    0.4810 hc        1 MOL      0.094365
    156 H74        14.1360    3.9050    0.0110 hc        1 MOL      0.094365
    157 H75        14.9590    3.5760   -2.0660 hx        1 MOL      0.094987
    158 H76        13.5230    2.6940   -2.1700 hx        1 MOL      0.094987
    159 H77        15.6520    1.3610   -2.9080 hn        1 MOL      0.237740
    160 H78        15.9590    1.2560   -1.2500 hn        1 MOL      0.237740
    161 H79        14.6230    0.7240   -1.9510 hn        1 MOL      0.237740
    162 N14         9.1350    3.6890   -0.6530 n         1 MOL     -0.371422
    163 C49         8.1900    4.2200   -1.6090 c3        1 MOL      0.051384
    164 C50         6.7250    3.7950   -1.1390 c         1 MOL      0.271031
    165 O22         6.0210    3.1770   -1.9500 o         1 MOL     -0.485308
    166 C51         8.3330    5.7460   -1.7510 c3        1 MOL     -0.146239
    167 C52         7.3250    6.3920   -2.7180 c3        1 MOL     -0.135982
    168 C53         7.5700    7.8830   -2.9720 c         1 MOL      0.685808
    169 O23         7.0200    8.6140   -2.1440 o         1 MOL     -0.658357
    170 O24         8.2650    8.2790   -3.9660 o         1 MOL     -0.658357
    171 H80         9.8900    4.2660   -0.3070 hn        1 MOL      0.242191
    172 H81         8.3950    3.7780   -2.5870 h1        1 MOL      0.118157
    173 H82         9.3310    6.0430   -2.0770 hc        1 MOL      0.059011
    174 H83         8.1490    6.2470   -0.7960 hc        1 MOL      0.059011
    175 H84         6.3320    6.4420   -2.2750 hc        1 MOL      0.047772
    176 H85         7.2500    5.8270   -3.6430 hc        1 MOL      0.047772
    177 N15         6.3110    3.8820    0.1030 n         1 MOL     -0.167411
    178 C54         6.9230    4.6860    1.1920 c3        1 MOL     -0.036480
    179 H86         7.9730    4.8660    0.9630 h1        1 MOL      0.045805
    180 H87         6.4010    5.6400    1.2770 h1        1 MOL      0.045805
    181 H88         6.8440    4.1430    2.1330 h1        1 MOL      0.045805
    182 H89         5.4290    3.4170    0.2350 hn        1 MOL      0.245177
    183 Ca1        -7.6380    4.2930    0.8130 Ca        1 MOL      1.663491
    184 O25        -7.3060    3.2230    3.4470 oh        1 MOL     -0.759068
    185 H90        -6.8300    4.0360    3.6290 ho        1 MOL      0.384493
    186 H91        -7.3780    2.7940    4.3070 ho        1 MOL      0.384493
@<TRIPOS>BOND
     1    1    2 1   
     2    1    4 1   
     3    1    5 1   
     4    1    6 1   
     5    2    3 2   
     6    2    7 1   
     7    7    8 1   
     8    7   15 1   
     9    8    9 1   
    10    8   11 1   
    11    8   16 1   
    12    9   10 2   
    13    9   19 1   
    14   11   12 1   
    15   11   17 1   
    16   11   18 1   
    17   12   13 1   
    18   12   14 1   
    19   19   20 1   
    20   19   28 1   
    21   20   21 1   
    22   20   23 1   
    23   20   29 1   
    24   21   22 2   
    25   21   41 1   
    26   23   24 1   
    27   23   30 1   
    28   23   31 1   
    29   24   25 1   
    30   24   32 1   
    31   24   33 1   
    32   25   26 1   
    33   25   34 1   
    34   25   35 1   
    35   26   27 1   
    36   26   36 1   
    37   26   37 1   
    38   27   38 1   
    39   27   39 1   
    40   27   40 1   
    41   41   42 1   
    42   41   49 1   
    43   42   43 1   
    44   42   45 1   
    45   42   50 1   
    46   43   44 2   
    47   43   53 1   
    48   45   46 1   
    49   45   51 1   
    50   45   52 1   
    51   46   47 1   
    52   46   48 1   
    53   53   54 1   
    54   53   57 1   
    55   54   55 1   
    56   54   58 1   
    57   54   59 1   
    58   55   56 2   
    59   55   60 1   
    60   60   61 1   
    61   60   68 1   
    62   61   62 1   
    63   61   64 1   
    64   61   69 1   
    65   62   63 2   
    66   62   72 1   
    67   64   65 1   
    68   64   70 1   
    69   64   71 1   
    70   65   66 1   
    71   65   67 1   
    72   72   73 1   
    73   72   76 1   
    74   73   74 1   
    75   73   77 1   
    76   73   78 1   
    77   74   75 2   
    78   74   79 1   
    79   79   80 1   
    80   79   86 1   
    81   80   81 1   
    82   80   83 1   
    83   80   87 1   
    84   81   82 2   
    85   81   93 1   
    86   83   84 1   
    87   83   85 1   
    88   83   88 1   
    89   84   90 1   
    90   84   91 1   
    91   84   92 1   
    92   85   89 1   
    93   93   94 1   
    94   93  101 1   
    95   94   95 1   
    96   94   97 1   
    97   94  102 1   
    98   95   96 2   
    99   95  112 1   
   100   97   98 1   
   101   97   99 1   
   102   97  103 1   
   103   98  100 1   
   104   98  104 1   
   105   98  105 1   
   106   99  106 1   
   107   99  107 1   
   108   99  108 1   
   109  100  109 1   
   110  100  110 1   
   111  100  111 1   
   112  112  113 1   
   113  112  119 1   
   114  113  114 1   
   115  113  116 1   
   116  113  120 1   
   117  114  115 2   
   118  114  126 1   
   119  116  117 1   
   120  116  118 1   
   121  116  121 1   
   122  117  123 1   
   123  117  124 1   
   124  117  125 1   
   125  118  122 1   
   126  126  127 1   
   127  126  133 1   
   128  127  128 1   
   129  127  130 1   
   130  127  134 1   
   131  128  129 2   
   132  128  140 1   
   133  130  131 1   
   134  130  132 1   
   135  130  135 1   
   136  131  137 1   
   137  131  138 1   
   138  131  139 1   
   139  132  136 1   
   140  140  141 1   
   141  140  149 1   
   142  141  142 1   
   143  141  144 1   
   144  141  150 1   
   145  142  143 2   
   146  142  162 1   
   147  144  145 1   
   148  144  151 1   
   149  144  152 1   
   150  145  146 1   
   151  145  153 1   
   152  145  154 1   
   153  146  147 1   
   154  146  155 1   
   155  146  156 1   
   156  147  148 1   
   157  147  157 1   
   158  147  158 1   
   159  148  159 1   
   160  148  160 1   
   161  148  161 1   
   162  162  163 1   
   163  162  171 1   
   164  163  164 1   
   165  163  166 1   
   166  163  172 1   
   167  164  165 2   
   168  164  177 1   
   169  166  167 1   
   170  166  173 1   
   171  166  174 1   
   172  167  168 1   
   173  167  175 1   
   174  167  176 1   
   175  168  169 1   
   176  168  170 1   
   177  177  178 1   
   178  177  182 1   
   179  178  179 1   
   180  178  180 1   
   181  178  181 1   
   182  184  185 1   
   183  184  186 1   
@<TRIPOS>SUBSTRUCTURE
     1 MOL         1 TEMP              0 ****  ****    0 ROOT
