@<TRIPOS>MOLECULE
MOL
  178   175     1     0     0
SMALL
resp


@<TRIPOS>ATOM
      1 C1         -2.2770   -5.2880   -2.8440 c3        1 MOL     -0.471245
      2 C2         -3.6840   -5.5720   -2.3590 c         1 MOL      0.732828
      3 O1         -3.9800   -6.3840   -1.4590 o         1 MOL     -0.593105
      4 H1         -1.6130   -6.0900   -2.5210 hc        1 MOL      0.125751
      5 H2         -2.2720   -5.2290   -3.9320 hc        1 MOL      0.125751
      6 H3         -1.9330   -4.3420   -2.4260 hc        1 MOL      0.125751
      7 N1         -4.7080   -4.9380   -2.9480 n         1 MOL     -0.666090
      8 C3         -6.0690   -4.7830   -2.4250 c3        1 MOL      0.382839
      9 C4         -6.1870   -4.0150   -1.1370 c         1 MOL      0.439624
     10 O2         -6.8240   -2.9970   -1.0000 o         1 MOL     -0.436820
     11 C5         -6.8990   -4.1560   -3.6030 c3        1 MOL     -0.237498
     12 C6         -8.3670   -4.2680   -3.4180 c         1 MOL      0.662795
     13 O3         -8.8150   -5.1480   -2.6580 o         1 MOL     -0.714398
     14 O4         -9.0570   -3.3430   -3.9170 o         1 MOL     -0.714398
     15 H4         -4.5030   -4.4300   -3.7930 hn        1 MOL      0.297150
     16 H5         -6.5850   -5.7250   -2.2590 h1        1 MOL      0.008176
     17 H6         -6.6090   -4.7010   -4.5030 hc        1 MOL      0.015363
     18 H7         -6.6800   -3.0950   -3.7370 hc        1 MOL      0.015363
     19 N2         -5.4180   -4.4590   -0.1350 n         1 MOL     -0.658048
     20 C7         -5.3800   -3.8050    1.2140 c3        1 MOL      0.653148
     21 C8         -3.9060   -3.8390    1.6360 c         1 MOL      0.315181
     22 O5         -3.1910   -4.7310    1.2370 o         1 MOL     -0.520483
     23 C9         -6.3220   -4.5950    2.1220 c3        1 MOL     -0.329001
     24 H8         -4.7470   -5.1540   -0.4370 hn        1 MOL      0.299547
     25 H9         -5.7950   -2.8040    1.1530 h1        1 MOL     -0.111067
     26 H10        -7.3400   -4.4260    1.7820 hc        1 MOL      0.073825
     27 H11        -6.1770   -5.6780    2.1450 hc        1 MOL      0.073825
     28 H12        -6.1720   -4.2480    3.1460 hc        1 MOL      0.073825
     29 N3         -3.5250   -3.1440    2.7200 n         1 MOL     -0.243042
     30 C10        -4.2210   -2.0400    3.3170 c3        1 MOL     -0.051277
     31 C11        -4.1190   -0.8290    2.4090 c         1 MOL      0.542241
     32 O6         -3.1530   -0.6320    1.6700 o         1 MOL     -0.510913
     33 C12        -3.7150   -1.8490    4.7460 c3        1 MOL     -0.191187
     34 C13        -2.1690   -1.9000    4.9690 c         1 MOL      0.679188
     35 O7         -1.8490   -1.9100    6.2090 o         1 MOL     -0.661983
     36 O8         -1.3400   -1.9860    4.0050 o         1 MOL     -0.661983
     37 H13        -2.5760   -3.2480    3.0520 hn        1 MOL      0.196016
     38 H14        -5.2570   -2.3910    3.3180 h1        1 MOL      0.038886
     39 H15        -4.1740   -2.6360    5.3350 hc        1 MOL      0.046482
     40 H16        -4.1090   -0.8850    5.0440 hc        1 MOL      0.046482
     41 N4         -5.0780    0.1090    2.6110 n         1 MOL     -0.442038
     42 C14        -5.2510    1.3020    1.7900 c3        1 MOL     -0.163617
     43 C15        -6.3660    1.2210    0.6400 c         1 MOL      0.748639
     44 O9         -7.0990    0.2570    0.4880 o         1 MOL     -0.537456
     45 H17        -5.9050   -0.1400    3.1350 hn        1 MOL      0.296757
     46 H18        -4.3100    1.2800    1.2330 h1        1 MOL      0.099815
     47 H19        -5.4530    2.1670    2.4230 h1        1 MOL      0.099815
     48 N5         -6.4570    2.2690   -0.2220 n         1 MOL     -0.654309
     49 C16        -5.7250    3.5710   -0.1380 c3        1 MOL      0.013435
     50 C17        -5.3500    4.1670   -1.4990 c         1 MOL      0.657022
     51 O10        -6.1580    4.4000   -2.3820 o         1 MOL     -0.544190
     52 C18        -6.7100    4.5590    0.5100 c3        1 MOL     -0.257377
     53 C19        -6.1050    5.9340    0.8610 c         1 MOL      0.677568
     54 N6         -6.9280    6.8550    1.2770 n         1 MOL     -0.803259
     55 O11        -4.9090    6.2720    0.8090 o         1 MOL     -0.551008
     56 H20        -7.0700    2.2310   -1.0200 hn        1 MOL      0.374242
     57 H21        -4.8220    3.4790    0.4630 h1        1 MOL      0.036705
     58 H22        -7.1120    4.1630    1.4450 hc        1 MOL      0.087640
     59 H23        -7.5780    4.7420   -0.1280 hc        1 MOL      0.087640
     60 H24        -7.8850    6.5950    1.4750 hn        1 MOL      0.368429
     61 H25        -6.5770    7.7930    1.3190 hn        1 MOL      0.368429
     62 N7         -4.0730    4.4680   -1.6460 n         1 MOL     -0.372903
     63 C20        -3.5490    4.9880   -2.8890 c3        1 MOL     -0.162912
     64 C21        -2.1450    5.6580   -2.8250 c         1 MOL      0.522335
     65 O12        -1.8040    6.5000   -3.6430 o         1 MOL     -0.538459
     66 H26        -3.5000    4.4100   -0.8260 hn        1 MOL      0.260464
     67 H27        -4.1990    5.8090   -3.2050 h1        1 MOL      0.116998
     68 H28        -3.6410    4.2670   -3.7020 h1        1 MOL      0.116998
     69 N8         -1.3270    5.3120   -1.8020 n         1 MOL     -0.213220
     70 C22         0.1470    5.6050   -1.6720 c3        1 MOL     -0.230314
     71 C23         0.9560    4.3500   -1.4590 c         1 MOL      0.668117
     72 O13         0.4390    3.2230   -1.2230 o         1 MOL     -0.584882
     73 C24         0.2950    6.6310   -0.5190 c3        1 MOL      0.514739
     74 C25        -0.3450    7.9380   -0.8520 c3        1 MOL     -0.385809
     75 O14        -0.3000    6.0610    0.5540 oh        1 MOL     -0.610842
     76 H29        -1.6230    4.6520   -1.0990 hn        1 MOL      0.163789
     77 H30         0.3320    6.0090   -2.6680 h1        1 MOL      0.117322
     78 H31         1.3390    6.8320   -0.2780 h1        1 MOL     -0.047341
     79 H32         0.4580    5.6040    0.9310 ho        1 MOL      0.392730
     80 H33        -1.3730    7.8370   -1.1840 hc        1 MOL      0.096159
     81 H34        -0.2810    8.5970    0.0170 hc        1 MOL      0.096159
     82 H35         0.2930    8.3150   -1.6560 hc        1 MOL      0.096159
     83 N9          2.2320    4.4720   -1.6780 n         1 MOL     -0.550757
     84 C26         3.2000    3.4310   -1.1220 c3        1 MOL     -0.128602
     85 C27         3.4820    3.5930    0.3680 c         1 MOL      0.398072
     86 O15         3.8290    4.6500    0.8940 o         1 MOL     -0.534185
     87 C28         4.5840    3.6750   -1.8490 c3        1 MOL      0.303019
     88 C29         5.6620    2.6390   -1.3970 c3        1 MOL      0.222735
     89 C30         4.4500    3.7140   -3.3280 c3        1 MOL     -0.465239
     90 C31         7.1020    3.0120   -1.6900 c3        1 MOL     -0.066875
     91 H36         2.6050    5.3320   -2.0360 hn        1 MOL      0.307547
     92 H37         2.9230    2.4140   -1.3870 h1        1 MOL      0.254401
     93 H38         5.0050    4.6420   -1.5550 hc        1 MOL     -0.025999
     94 H39         5.3930    1.7280   -1.9400 hc        1 MOL     -0.087770
     95 H40         5.6250    2.5030   -0.3140 hc        1 MOL     -0.087770
     96 H41         3.9670    2.8370   -3.7630 hc        1 MOL      0.099985
     97 H42         3.8670    4.5930   -3.6090 hc        1 MOL      0.099985
     98 H43         5.3700    3.8360   -3.9040 hc        1 MOL      0.099985
     99 H44         7.8110    2.2580   -1.3580 hc        1 MOL     -0.004422
    100 H45         7.2390    3.2090   -2.7540 hc        1 MOL     -0.004422
    101 H46         7.3380    3.9900   -1.2720 hc        1 MOL     -0.004422
    102 N10         3.4670    2.4260    1.1150 n         1 MOL     -0.200569
    103 C32         4.1180    2.2010    2.3710 c3        1 MOL      0.089724
    104 C33         5.0720    1.0070    2.4300 c         1 MOL      0.307420
    105 O16         5.8590    0.9830    3.3830 o         1 MOL     -0.532943
    106 C34         3.1010    2.1090    3.4800 c3        1 MOL     -0.145791
    107 C35         1.8010    1.2950    3.2380 c         1 MOL      0.842354
    108 O17         0.8100    1.8660    2.7600 o         1 MOL     -0.811922
    109 O18         1.7390    0.0470    3.6160 o         1 MOL     -0.811922
    110 H47         3.2180    1.5820    0.6110 hn        1 MOL      0.112301
    111 H48         4.7180    3.0950    2.5750 h1        1 MOL      0.070795
    112 H49         2.7770    3.1070    3.7870 hc        1 MOL      0.038141
    113 H50         3.6310    1.8190    4.3870 hc        1 MOL      0.038141
    114 N11         5.0830    0.1880    1.3820 n         1 MOL      0.009535
    115 C36         6.0970   -0.8510    1.1550 c3        1 MOL      0.110150
    116 C37         5.6130   -2.1810    0.5260 c         1 MOL      0.393862
    117 O19         6.2020   -2.7040   -0.4330 o         1 MOL     -0.497373
    118 C38         7.3480   -0.2740    0.3870 c3        1 MOL     -0.122319
    119 C39         8.5780   -1.1560    0.4120 ca        1 MOL      0.129481
    120 C40         9.2090   -1.8150    1.5430 ca        1 MOL     -0.166384
    121 C41         9.2180   -1.1940   -0.8020 ca        1 MOL     -0.166384
    122 C42        10.4830   -2.3880    1.3500 ca        1 MOL     -0.139959
    123 C43        10.4610   -1.8680   -1.0020 ca        1 MOL     -0.139959
    124 C44        11.1170   -2.4960    0.0320 ca        1 MOL     -0.115619
    125 H51         4.3900    0.3000    0.6620 hn        1 MOL      0.034448
    126 H52         6.4490   -1.0700    2.1670 h1        1 MOL      0.012492
    127 H53         7.6910    0.6940    0.7410 hc        1 MOL      0.057781
    128 H54         7.0620   -0.1640   -0.6520 hc        1 MOL      0.057781
    129 H55         8.7090   -1.7620    2.5030 ha        1 MOL      0.127791
    130 H56         8.7030   -0.8060   -1.6730 ha        1 MOL      0.127791
    131 H57        11.0180   -2.7030    2.2320 ha        1 MOL      0.104722
    132 H58        10.7570   -1.8580   -2.0370 ha        1 MOL      0.104722
    133 H59        12.0750   -3.0110   -0.0160 ha        1 MOL      0.104802
    134 N12         4.4300   -2.6470    0.9160 n         1 MOL     -0.262076
    135 C45         3.7490   -3.8510    0.3580 c3        1 MOL      0.043448
    136 C46         3.4160   -3.7120   -1.1180 c         1 MOL      0.181418
    137 O20         3.3290   -4.7130   -1.8320 o         1 MOL     -0.476469
    138 C47         2.4570   -4.0750    1.1770 c3        1 MOL     -0.022923
    139 C48         2.8640   -3.4580    2.5130 c3        1 MOL     -0.086681
    140 C49         3.6620   -2.2400    2.0650 c3        1 MOL      0.124371
    141 H60         4.4160   -4.6930    0.5420 h1        1 MOL      0.087694
    142 H61         1.6230   -3.5920    0.6500 hc        1 MOL      0.032739
    143 H62         2.2520   -5.1290    1.3690 hc        1 MOL      0.032739
    144 H63         2.0610   -3.1100    3.1520 hc        1 MOL      0.033667
    145 H64         3.5280   -4.1080    3.0780 hc        1 MOL      0.033667
    146 H65         3.0030   -1.5160    1.5760 h1        1 MOL      0.040139
    147 H66         4.1770   -1.7520    2.8880 h1        1 MOL      0.040139
    148 N13         3.2840   -2.4550   -1.5940 n         1 MOL      0.306206
    149 C50         2.7800   -2.1670   -2.9400 c3        1 MOL     -0.324270
    150 C51         3.8480   -2.6990   -3.8980 c         1 MOL      0.498049
    151 O21         3.5360   -3.2080   -4.9700 o         1 MOL     -0.540428
    152 C52         2.4510   -0.6580   -3.1380 c3        1 MOL      0.100044
    153 C53         1.3710   -0.1150   -2.1920 c3        1 MOL     -0.416191
    154 C54         1.7750   -0.2050   -0.7250 c         1 MOL      0.425168
    155 O22         0.9130   -0.5420    0.1020 o         1 MOL     -0.527186
    156 O23         2.9740    0.1210   -0.4130 o         1 MOL     -0.527186
    157 H67         3.3970   -1.6630   -0.9710 hn        1 MOL      0.026737
    158 H68         1.9530   -2.8390   -3.1420 h1        1 MOL      0.139189
    159 H69         2.0050   -0.5840   -4.1330 hc        1 MOL      0.014803
    160 H70         3.3130    0.0070   -3.1890 hc        1 MOL      0.014803
    161 H71         0.5150   -0.7610   -2.4250 hc        1 MOL      0.159333
    162 H72         1.2500    0.9300   -2.4510 hc        1 MOL      0.159333
    163 N14         5.1430   -2.5350   -3.5730 n         1 MOL     -0.228584
    164 C55         6.2600   -3.0940   -4.3230 c3        1 MOL     -0.182767
    165 H73         6.5870   -4.0210   -3.8520 h1        1 MOL      0.084219
    166 H74         5.9460   -3.2980   -5.3460 h1        1 MOL      0.084219
    167 H75         7.0850   -2.3810   -4.3320 h1        1 MOL      0.084219
    168 H76         5.3870   -2.0880   -2.7030 hn        1 MOL      0.179709
    169 Ca1        -0.4870   -0.3370    2.1690 Ca        1 MOL      1.748977
    170 O24        -1.6100    1.1550    4.0270 oh        1 MOL     -0.898433
    171 H77        -2.2910    1.2180    4.6950 ho        1 MOL      0.431835
    172 H78        -1.3730    2.0590    3.8390 ho        1 MOL      0.431835
    173 O25        -0.7540   -2.8070    1.1000 oh        1 MOL     -0.898433
    174 H79        -0.2720   -3.4630    1.6070 ho        1 MOL      0.431835
    175 H80        -1.2390   -3.3140    0.4440 ho        1 MOL      0.431835
    176 O26        -1.1160    1.5740    0.3120 oh        1 MOL     -0.898433
    177 H81        -0.3720    1.8370   -0.2350 ho        1 MOL      0.431835
    178 H82        -1.5390    2.4030    0.5540 ho        1 MOL      0.431835
@<TRIPOS>BOND
     1    1    2 1   
     2    1    4 1   
     3    1    5 1   
     4    1    6 1   
     5    2    3 2   
     6    2    7 1   
     7    7    8 1   
     8    7   15 1   
     9    8    9 1   
    10    8   11 1   
    11    8   16 1   
    12    9   10 2   
    13    9   19 1   
    14   11   12 1   
    15   11   17 1   
    16   11   18 1   
    17   12   13 1   
    18   12   14 1   
    19   19   20 1   
    20   19   24 1   
    21   20   21 1   
    22   20   23 1   
    23   20   25 1   
    24   21   22 2   
    25   21   29 1   
    26   23   26 1   
    27   23   27 1   
    28   23   28 1   
    29   29   30 1   
    30   29   37 1   
    31   30   31 1   
    32   30   33 1   
    33   30   38 1   
    34   31   32 2   
    35   31   41 1   
    36   33   34 1   
    37   33   39 1   
    38   33   40 1   
    39   34   35 1   
    40   34   36 1   
    41   41   42 1   
    42   41   45 1   
    43   42   43 1   
    44   42   46 1   
    45   42   47 1   
    46   43   44 2   
    47   43   48 1   
    48   48   49 1   
    49   48   56 1   
    50   49   50 1   
    51   49   52 1   
    52   49   57 1   
    53   50   51 2   
    54   50   62 1   
    55   52   53 1   
    56   52   58 1   
    57   52   59 1   
    58   53   54 1   
    59   53   55 2   
    60   54   60 1   
    61   54   61 1   
    62   62   63 1   
    63   62   66 1   
    64   63   64 1   
    65   63   67 1   
    66   63   68 1   
    67   64   65 2   
    68   64   69 1   
    69   69   70 1   
    70   69   76 1   
    71   70   71 1   
    72   70   73 1   
    73   70   77 1   
    74   71   72 2   
    75   71   83 1   
    76   73   74 1   
    77   73   75 1   
    78   73   78 1   
    79   74   80 1   
    80   74   81 1   
    81   74   82 1   
    82   75   79 1   
    83   83   84 1   
    84   83   91 1   
    85   84   85 1   
    86   84   87 1   
    87   84   92 1   
    88   85   86 2   
    89   85  102 1   
    90   87   88 1   
    91   87   89 1   
    92   87   93 1   
    93   88   90 1   
    94   88   94 1   
    95   88   95 1   
    96   89   96 1   
    97   89   97 1   
    98   89   98 1   
    99   90   99 1   
   100   90  100 1   
   101   90  101 1   
   102  102  103 1   
   103  102  110 1   
   104  103  104 1   
   105  103  106 1   
   106  103  111 1   
   107  104  105 2   
   108  104  114 1   
   109  106  107 1   
   110  106  112 1   
   111  106  113 1   
   112  107  108 1   
   113  107  109 1   
   114  114  115 1   
   115  114  125 1   
   116  115  116 1   
   117  115  118 1   
   118  115  126 1   
   119  116  117 2   
   120  116  134 1   
   121  118  119 1   
   122  118  127 1   
   123  118  128 1   
   124  119  120 ar  
   125  119  121 ar  
   126  120  122 ar  
   127  120  129 1   
   128  121  123 ar  
   129  121  130 1   
   130  122  124 ar  
   131  122  131 1   
   132  123  124 ar  
   133  123  132 1   
   134  124  133 1   
   135  134  135 1   
   136  134  140 1   
   137  135  136 1   
   138  135  138 1   
   139  135  141 1   
   140  136  137 2   
   141  136  148 1   
   142  138  139 1   
   143  138  142 1   
   144  138  143 1   
   145  139  140 1   
   146  139  144 1   
   147  139  145 1   
   148  140  146 1   
   149  140  147 1   
   150  148  149 1   
   151  148  157 1   
   152  149  150 1   
   153  149  152 1   
   154  149  158 1   
   155  150  151 2   
   156  150  163 1   
   157  152  153 1   
   158  152  159 1   
   159  152  160 1   
   160  153  154 1   
   161  153  161 1   
   162  153  162 1   
   163  154  155 1   
   164  154  156 1   
   165  163  164 1   
   166  163  168 1   
   167  164  165 1   
   168  164  166 1   
   169  164  167 1   
   170  170  171 1   
   171  170  172 1   
   172  173  174 1   
   173  173  175 1   
   174  176  177 1   
   175  176  178 1   
@<TRIPOS>SUBSTRUCTURE
     1 MOL         1 TEMP              0 ****  ****    0 ROOT
