@<TRIPOS>MOLECULE
MOL
  192   187     1     0     0
SMALL
resp


@<TRIPOS>ATOM
      1 C1          1.5830    8.7500    2.0090 c3        1 MOL     -0.344103
      2 C2          1.9800    7.5500    1.1270 c         1 MOL      0.632792
      3 O1          2.1220    7.7770   -0.0730 o         1 MOL     -0.579762
      4 H1          0.5290    8.6720    2.2740 hc        1 MOL      0.099799
      5 H2          2.1870    8.7500    2.9160 hc        1 MOL      0.099799
      6 H3          1.7520    9.6770    1.4600 hc        1 MOL      0.099799
      7 N1          2.1980    6.3730    1.6750 n         1 MOL     -0.453056
      8 C3          2.5620    5.1130    0.9200 c3        1 MOL      0.418724
      9 C4          1.4070    4.1280    0.6580 c         1 MOL      0.188742
     10 O2          1.4160    3.3480   -0.3010 o         1 MOL     -0.340843
     11 C5          3.7550    4.4580    1.6250 c3        1 MOL     -0.343086
     12 C6          3.5170    3.7710    2.9450 c         1 MOL      0.818683
     13 O3          3.7450    4.4180    3.9630 o         1 MOL     -0.733186
     14 O4          2.9980    2.6490    2.9550 o         1 MOL     -0.733186
     15 H4          2.2950    6.3410    2.6750 hn        1 MOL      0.251348
     16 H5          2.8840    5.4970   -0.0430 h1        1 MOL     -0.082909
     17 H6          4.5250    5.2270    1.7650 hc        1 MOL      0.083543
     18 H7          4.1230    3.6370    1.0210 hc        1 MOL      0.083543
     19 N2          0.2980    4.2300    1.4100 n         1 MOL     -0.324902
     20 C7         -0.8700    3.3570    1.3970 c3        1 MOL      0.183640
     21 C8         -1.8050    3.6870    0.1860 c         1 MOL      0.368925
     22 O5         -1.8580    4.8240   -0.2720 o         1 MOL     -0.554380
     23 C9         -1.6900    3.4030    2.7420 c3        1 MOL     -0.088250
     24 C10        -0.9030    3.2580    4.0540 c3        1 MOL     -0.166388
     25 C11        -0.1700    1.9060    4.2030 c3        1 MOL      0.062292
     26 C12         0.6120    1.8230    5.4940 c3        1 MOL     -0.032328
     27 N3          1.9010    2.5790    5.4380 n4        1 MOL     -0.309524
     28 H8          0.2330    5.0480    1.9940 hn        1 MOL      0.201614
     29 H9         -0.4750    2.3390    1.3520 h1        1 MOL      0.080833
     30 H10        -2.4350    2.6070    2.7590 hc        1 MOL      0.073028
     31 H11        -2.2410    4.3400    2.8540 hc        1 MOL      0.073028
     32 H12        -1.5350    3.4010    4.9270 hc        1 MOL      0.046709
     33 H13        -0.0930    3.9870    4.0120 hc        1 MOL      0.046709
     34 H14         0.6360    1.8280    3.4740 hc        1 MOL      0.053480
     35 H15        -0.8220    1.0320    4.1390 hc        1 MOL      0.053480
     36 H16         0.8100    0.7500    5.6020 hx        1 MOL      0.067915
     37 H17         0.0220    2.1380    6.3550 hx        1 MOL      0.067915
     38 H18         2.6100    2.2800    6.0970 hn        1 MOL      0.293710
     39 H19         2.3270    2.4480    4.5260 hn        1 MOL      0.293710
     40 H20         1.7600    3.5720    5.5060 hn        1 MOL      0.293710
     41 N4         -2.4700    2.7220   -0.4770 n         1 MOL     -0.374708
     42 C13        -2.2190    1.3200   -0.4490 c3        1 MOL     -0.236444
     43 C14        -2.4720    0.5630    0.8620 c         1 MOL      0.540291
     44 O6         -1.7580   -0.3150    1.3210 o         1 MOL     -0.653693
     45 C15        -0.9060    0.9940   -1.1920 c3        1 MOL      0.112149
     46 C16        -0.7660    1.5480   -2.6110 c         1 MOL      0.662366
     47 O7         -0.6210    2.8400   -2.6520 o         1 MOL     -0.722265
     48 O8         -0.8180    0.7460   -3.5970 o         1 MOL     -0.722265
     49 H21        -2.9990    3.1150   -1.2330 hn        1 MOL      0.331910
     50 H22        -3.0660    0.9350   -1.0160 h1        1 MOL      0.196301
     51 H23        -0.7710   -0.0830   -1.1690 hc        1 MOL      0.015514
     52 H24        -0.0650    1.3110   -0.5830 hc        1 MOL      0.015514
     53 N5         -3.6640    0.5960    1.4720 n         1 MOL     -0.234081
     54 C17        -4.9470    1.2480    1.1200 c3        1 MOL     -0.137788
     55 C18        -6.1210    0.9580    2.0900 c         1 MOL      0.497202
     56 O9         -5.9320    0.5570    3.2230 o         1 MOL     -0.520205
     57 H25        -3.7850   -0.0400    2.2490 hn        1 MOL      0.228430
     58 H26        -5.2730    0.8770    0.1490 h1        1 MOL      0.075681
     59 H27        -4.8290    2.2990    0.8560 h1        1 MOL      0.075681
     60 N6         -7.3980    1.0910    1.6260 n         1 MOL     -0.393485
     61 C19        -7.7100    1.1930    0.2210 c3        1 MOL      0.012397
     62 C20        -7.6880   -0.1280   -0.6100 c         1 MOL      0.562235
     63 O10        -7.8690   -1.2060   -0.0290 o         1 MOL     -0.509023
     64 C21        -9.0610    1.8170   -0.0470 c3        1 MOL     -0.269220
     65 C22        -9.2600    2.9870    1.0140 c         1 MOL      0.724656
     66 O11        -9.9080    2.8060    2.0580 o         1 MOL     -0.649961
     67 O12        -8.7950    4.1140    0.7460 o         1 MOL     -0.649961
     68 H28        -8.1440    1.0170    2.2980 hn        1 MOL      0.313376
     69 H29        -6.9210    1.7950   -0.2220 h1        1 MOL      0.040138
     70 H30        -9.8530    1.1270    0.2420 hc        1 MOL      0.053511
     71 H31        -9.1090    1.9890   -1.1240 hc        1 MOL      0.053511
     72 N7         -7.5750   -0.0140   -1.9040 n         1 MOL     -0.403836
     73 C23        -7.1970   -1.1030   -2.7690 c3        1 MOL     -0.231745
     74 C24        -5.7590   -1.6560   -2.5510 c         1 MOL      0.580727
     75 O13        -4.9120   -0.8780   -2.0520 o         1 MOL     -0.523394
     76 H32        -7.6360    0.8870   -2.3530 hn        1 MOL      0.320235
     77 H33        -7.3370   -0.7930   -3.8080 h1        1 MOL      0.115460
     78 H34        -7.8820   -1.9060   -2.5060 h1        1 MOL      0.115460
     79 N8         -5.5450   -2.9220   -2.9570 n         1 MOL     -0.531476
     80 C25        -4.2680   -3.6120   -2.9240 c3        1 MOL      0.326145
     81 C26        -3.3860   -3.3820   -1.6720 c         1 MOL      0.478141
     82 O14        -2.2190   -3.0310   -1.6690 o         1 MOL     -0.571894
     83 C27        -3.4480   -3.3580   -4.1880 c3        1 MOL      0.069113
     84 C28        -3.0230   -1.9350   -4.4620 c3        1 MOL     -0.189449
     85 O15        -4.1620   -3.9080   -5.2770 oh        1 MOL     -0.652153
     86 H35        -6.3020   -3.3490   -3.4670 hn        1 MOL      0.315697
     87 H36        -4.5130   -4.6720   -2.8410 h1        1 MOL      0.011561
     88 H37        -2.5390   -3.9560   -4.1160 h1        1 MOL      0.047212
     89 H38        -3.6240   -4.3120   -5.9630 ho        1 MOL      0.413220
     90 H39        -3.8280   -1.3610   -4.9230 hc        1 MOL      0.094219
     91 H40        -2.7700   -1.4310   -3.5270 hc        1 MOL      0.094219
     92 H41        -2.1600   -1.7780   -5.1050 hc        1 MOL      0.094219
     93 N9         -3.9670   -3.7570   -0.5090 n         1 MOL     -0.432235
     94 C29        -3.3000   -3.4870    0.8300 c3        1 MOL     -0.532656
     95 C30        -1.9530   -4.2130    1.1150 c         1 MOL      0.475654
     96 O16        -1.4390   -3.9670    2.2330 o         1 MOL     -0.523345
     97 C31        -4.4460   -3.5840    1.9040 c3        1 MOL      0.251409
     98 C32        -4.9960   -5.0170    2.1490 c3        1 MOL      0.001335
     99 C33        -5.6450   -2.5880    1.5200 c3        1 MOL     -0.154827
    100 C34        -6.2760   -5.1740    3.0260 c3        1 MOL     -0.155795
    101 H42        -4.9450   -4.0030   -0.5370 hn        1 MOL      0.261578
    102 H43        -2.9700   -2.4470    0.8370 h1        1 MOL      0.413124
    103 H44        -4.0110   -3.1280    2.7850 hc        1 MOL     -0.005631
    104 H45        -4.2650   -5.6560    2.6390 hc        1 MOL      0.009495
    105 H46        -5.1860   -5.4240    1.1490 hc        1 MOL      0.009495
    106 H47        -6.2480   -2.3930    2.4070 hc        1 MOL      0.047053
    107 H48        -5.2870   -1.7130    0.9950 hc        1 MOL      0.047053
    108 H49        -6.4020   -3.1240    0.9440 hc        1 MOL      0.047053
    109 H50        -7.1940   -4.7820    2.6020 hc        1 MOL      0.042769
    110 H51        -6.5580   -6.2200    3.1850 hc        1 MOL      0.042769
    111 H52        -6.1460   -4.7220    4.0070 hc        1 MOL      0.042769
    112 N10        -1.4330   -5.0930    0.2440 n         1 MOL     -0.010200
    113 C35        -0.2270   -5.8820    0.5640 c3        1 MOL     -0.531981
    114 C36         1.0580   -5.0740    0.7290 c         1 MOL      0.663683
    115 O17         2.0690   -5.5660    1.2010 o         1 MOL     -0.602237
    116 C37         0.0650   -6.9290   -0.5300 c3        1 MOL      0.378262
    117 C38         0.2180   -6.3160   -1.9220 c3        1 MOL     -0.116205
    118 O18        -1.0200   -7.8200   -0.7360 oh        1 MOL     -0.641628
    119 H53        -1.9110   -5.3340   -0.6140 hn        1 MOL      0.229519
    120 H54        -0.4590   -6.4250    1.4770 h1        1 MOL      0.205299
    121 H55         0.9780   -7.5010   -0.3840 h1        1 MOL      0.028903
    122 H56        -0.6990   -8.6030   -1.1990 ho        1 MOL      0.392571
    123 H57         0.7420   -7.0850   -2.5040 hc        1 MOL      0.021827
    124 H58        -0.7710   -6.1460   -2.3480 hc        1 MOL      0.021827
    125 H59         0.8320   -5.4200   -1.8810 hc        1 MOL      0.021827
    126 N11         1.0350   -3.7780    0.4920 n         1 MOL     -0.276688
    127 C39         2.2070   -2.9180    0.6340 c3        1 MOL     -0.092093
    128 C40         3.3460   -3.3550   -0.2480 c         1 MOL      0.519281
    129 O19         3.1010   -4.1170   -1.1490 o         1 MOL     -0.476131
    130 C41         2.5360   -2.5800    2.1280 c3        1 MOL      0.400169
    131 C42         1.4440   -2.0140    2.9520 c3        1 MOL     -0.394180
    132 O20         3.5170   -1.5280    2.1640 oh        1 MOL     -0.645776
    133 H60         0.1910   -3.3730    0.1240 hn        1 MOL      0.270386
    134 H61         1.9350   -1.9500    0.2150 h1        1 MOL      0.092527
    135 H62         2.8830   -3.4900    2.6090 h1        1 MOL      0.039904
    136 H63         3.0890   -0.7360    1.8370 ho        1 MOL      0.408853
    137 H64         0.9690   -2.8890    3.3980 hc        1 MOL      0.101427
    138 H65         1.8380   -1.3320    3.7060 hc        1 MOL      0.101427
    139 H66         0.7410   -1.4690    2.3150 hc        1 MOL      0.101427
    140 N12         4.5780   -2.9420    0.0810 n         1 MOL     -0.414321
    141 C43         5.7430   -3.4850   -0.6560 c3        1 MOL     -0.035358
    142 C44         6.5720   -2.5630   -1.5150 c         1 MOL      0.619349
    143 O21         7.6800   -2.8170   -1.8020 o         1 MOL     -0.554727
    144 C45         6.5430   -4.2580    0.3160 c3        1 MOL      0.264230
    145 C46         6.9980   -3.4820    1.6030 c3        1 MOL     -0.213768
    146 C47         8.0210   -4.2750    2.4690 c3        1 MOL     -0.096705
    147 C48         7.5210   -5.6230    2.8830 c3        1 MOL      0.039562
    148 N13         8.5820   -6.4630    3.5150 n4        1 MOL     -0.266081
    149 H67         4.6990   -2.3440    0.8910 hn        1 MOL      0.220507
    150 H68         5.4050   -4.1610   -1.4340 h1        1 MOL      0.064871
    151 H69         7.3890   -4.6700   -0.2200 hc        1 MOL     -0.049582
    152 H70         5.9900   -5.1380    0.6470 hc        1 MOL     -0.049582
    153 H71         6.0960   -3.1770    2.1400 hc        1 MOL      0.089129
    154 H72         7.5720   -2.6160    1.2990 hc        1 MOL      0.089129
    155 H73         8.5450   -3.6980    3.2350 hc        1 MOL      0.069308
    156 H74         8.8010   -4.4630    1.7270 hc        1 MOL      0.069308
    157 H75         7.2070   -6.0710    1.9500 hx        1 MOL      0.085000
    158 H76         6.6690   -5.5960    3.5590 hx        1 MOL      0.085000
    159 H77         8.1330   -7.3650    3.5890 hn        1 MOL      0.254271
    160 H78         9.4300   -6.4760    2.9730 hn        1 MOL      0.254271
    161 H79         8.8610   -6.2350    4.4510 hn        1 MOL      0.254271
    162 N14         6.0210   -1.3420   -1.6700 n         1 MOL     -0.278904
    163 C49         6.7160   -0.2240   -2.3680 c3        1 MOL     -0.455728
    164 C50         7.9250    0.4630   -1.7450 c         1 MOL      0.627195
    165 O22         8.0900    0.5360   -0.5350 o         1 MOL     -0.527805
    166 C51         5.6550    0.9030   -2.7480 c3        1 MOL      0.250568
    167 C52         4.6710    1.3010   -1.5720 c3        1 MOL      0.002443
    168 C53         3.6210    2.2340   -2.1620 c         1 MOL      0.530410
    169 O23         3.7950    3.4710   -2.1330 o         1 MOL     -0.759237
    170 O24         2.5590    1.8120   -2.6720 o         1 MOL     -0.759237
    171 H80         5.1150   -1.2330   -1.2200 hn        1 MOL      0.182753
    172 H81         7.0580   -0.6610   -3.3030 h1        1 MOL      0.148340
    173 H82         5.1390    0.4290   -3.5820 hc        1 MOL     -0.012485
    174 H83         6.1530    1.7440   -3.2200 hc        1 MOL     -0.012485
    175 H84         5.1690    1.8320   -0.7580 hc        1 MOL      0.038843
    176 H85         4.1510    0.4610   -1.1070 hc        1 MOL      0.038843
    177 N15         8.7910    1.0020   -2.6100 n         1 MOL     -0.317944
    178 C54         9.9820    1.7750   -2.2270 c3        1 MOL     -0.203449
    179 H86        10.8090    1.5190   -2.8890 h1        1 MOL      0.100787
    180 H87         9.7660    2.8400   -2.3120 h1        1 MOL      0.100787
    181 H88        10.2540    1.5390   -1.1980 h1        1 MOL      0.100787
    182 H89         8.7370    0.7120   -3.5770 hn        1 MOL      0.250515
    183 Ca1         1.4780    4.1850   -2.9820 Ca        1 MOL      1.735391
    184 O25         0.5880    5.4670   -4.9810 oh        1 MOL     -0.893986
    185 H90         0.2250    6.3370   -5.1610 ho        1 MOL      0.443901
    186 H91         1.1800    5.2880   -5.7130 ho        1 MOL      0.443901
    187 O26        -0.0770    6.0020   -2.0230 oh        1 MOL     -0.893986
    188 H92        -0.2740    6.9020   -2.2570 ho        1 MOL      0.443901
    189 H93        -0.7550    5.7680   -1.3890 ho        1 MOL      0.443901
    190 O27         2.8990    6.5160   -2.5530 oh        1 MOL     -0.893986
    191 H94         3.8600    6.5310   -2.6570 ho        1 MOL      0.443901
    192 H95         2.7530    6.8630   -1.6700 ho        1 MOL      0.443901
@<TRIPOS>BOND
     1    1    2 1   
     2    1    4 1   
     3    1    5 1   
     4    1    6 1   
     5    2    3 2   
     6    2    7 1   
     7    7    8 1   
     8    7   15 1   
     9    8    9 1   
    10    8   11 1   
    11    8   16 1   
    12    9   10 2   
    13    9   19 1   
    14   11   12 1   
    15   11   17 1   
    16   11   18 1   
    17   12   13 1   
    18   12   14 1   
    19   19   20 1   
    20   19   28 1   
    21   20   21 1   
    22   20   23 1   
    23   20   29 1   
    24   21   22 2   
    25   21   41 1   
    26   23   24 1   
    27   23   30 1   
    28   23   31 1   
    29   24   25 1   
    30   24   32 1   
    31   24   33 1   
    32   25   26 1   
    33   25   34 1   
    34   25   35 1   
    35   26   27 1   
    36   26   36 1   
    37   26   37 1   
    38   27   38 1   
    39   27   39 1   
    40   27   40 1   
    41   41   42 1   
    42   41   49 1   
    43   42   43 1   
    44   42   45 1   
    45   42   50 1   
    46   43   44 2   
    47   43   53 1   
    48   45   46 1   
    49   45   51 1   
    50   45   52 1   
    51   46   47 1   
    52   46   48 1   
    53   53   54 1   
    54   53   57 1   
    55   54   55 1   
    56   54   58 1   
    57   54   59 1   
    58   55   56 2   
    59   55   60 1   
    60   60   61 1   
    61   60   68 1   
    62   61   62 1   
    63   61   64 1   
    64   61   69 1   
    65   62   63 2   
    66   62   72 1   
    67   64   65 1   
    68   64   70 1   
    69   64   71 1   
    70   65   66 1   
    71   65   67 1   
    72   72   73 1   
    73   72   76 1   
    74   73   74 1   
    75   73   77 1   
    76   73   78 1   
    77   74   75 2   
    78   74   79 1   
    79   79   80 1   
    80   79   86 1   
    81   80   81 1   
    82   80   83 1   
    83   80   87 1   
    84   81   82 2   
    85   81   93 1   
    86   83   84 1   
    87   83   85 1   
    88   83   88 1   
    89   84   90 1   
    90   84   91 1   
    91   84   92 1   
    92   85   89 1   
    93   93   94 1   
    94   93  101 1   
    95   94   95 1   
    96   94   97 1   
    97   94  102 1   
    98   95   96 2   
    99   95  112 1   
   100   97   98 1   
   101   97   99 1   
   102   97  103 1   
   103   98  100 1   
   104   98  104 1   
   105   98  105 1   
   106   99  106 1   
   107   99  107 1   
   108   99  108 1   
   109  100  109 1   
   110  100  110 1   
   111  100  111 1   
   112  112  113 1   
   113  112  119 1   
   114  113  114 1   
   115  113  116 1   
   116  113  120 1   
   117  114  115 2   
   118  114  126 1   
   119  116  117 1   
   120  116  118 1   
   121  116  121 1   
   122  117  123 1   
   123  117  124 1   
   124  117  125 1   
   125  118  122 1   
   126  126  127 1   
   127  126  133 1   
   128  127  128 1   
   129  127  130 1   
   130  127  134 1   
   131  128  129 2   
   132  128  140 1   
   133  130  131 1   
   134  130  132 1   
   135  130  135 1   
   136  131  137 1   
   137  131  138 1   
   138  131  139 1   
   139  132  136 1   
   140  140  141 1   
   141  140  149 1   
   142  141  142 1   
   143  141  144 1   
   144  141  150 1   
   145  142  143 2   
   146  142  162 1   
   147  144  145 1   
   148  144  151 1   
   149  144  152 1   
   150  145  146 1   
   151  145  153 1   
   152  145  154 1   
   153  146  147 1   
   154  146  155 1   
   155  146  156 1   
   156  147  148 1   
   157  147  157 1   
   158  147  158 1   
   159  148  159 1   
   160  148  160 1   
   161  148  161 1   
   162  162  163 1   
   163  162  171 1   
   164  163  164 1   
   165  163  166 1   
   166  163  172 1   
   167  164  165 2   
   168  164  177 1   
   169  166  167 1   
   170  166  173 1   
   171  166  174 1   
   172  167  168 1   
   173  167  175 1   
   174  167  176 1   
   175  168  169 1   
   176  168  170 1   
   177  177  178 1   
   178  177  182 1   
   179  178  179 1   
   180  178  180 1   
   181  178  181 1   
   182  184  185 1   
   183  184  186 1   
   184  187  188 1   
   185  187  189 1   
   186  190  191 1   
   187  190  192 1   
@<TRIPOS>SUBSTRUCTURE
     1 MOL         1 TEMP              0 ****  ****    0 ROOT
