@<TRIPOS>MOLECULE
MOL
  187   181     1     0     0
SMALL
resp


@<TRIPOS>ATOM
      1 C1          1.6430   -0.5590    4.4900 c3        1 MOL     -0.303084
      2 C2          2.7400    0.3560    3.7670 c         1 MOL      0.504028
      3 O1          2.2940    1.1180    2.8830 o         1 MOL     -0.526268
      4 H1          1.9010   -0.6720    5.5430 hc        1 MOL      0.085326
      5 H2          0.6640   -0.0880    4.4050 hc        1 MOL      0.085326
      6 H3          1.6170   -1.5400    4.0150 hc        1 MOL      0.085326
      7 N1          3.9920    0.4170    4.1850 n         1 MOL     -0.368048
      8 C3          5.0050    1.2860    3.6350 c3        1 MOL      0.021918
      9 C4          5.6650    0.8240    2.3700 c         1 MOL      0.439297
     10 O2          6.2160    1.6650    1.6700 o         1 MOL     -0.461530
     11 C5          6.0360    1.5260    4.8090 c3        1 MOL     -0.143527
     12 C6          6.9710    2.7230    4.5760 c         1 MOL      0.684696
     13 O3          8.0600    2.4510    4.0250 o         1 MOL     -0.715261
     14 O4          6.7060    3.8970    4.9410 o         1 MOL     -0.715261
     15 H4          4.2810   -0.3520    4.7670 hn        1 MOL      0.254968
     16 H5          4.5160    2.2230    3.3950 h1        1 MOL      0.115844
     17 H6          6.5650    0.5850    4.9720 hc        1 MOL      0.001157
     18 H7          5.5030    1.7140    5.7420 hc        1 MOL      0.001157
     19 N2          5.5650   -0.4970    2.0780 n         1 MOL     -0.463940
     20 C7          5.9740   -1.1710    0.8600 c3        1 MOL      0.318764
     21 C8          5.2510   -0.6960   -0.4240 c         1 MOL      0.380791
     22 O5          4.3570   -1.3870   -0.8910 o         1 MOL     -0.617925
     23 C9          7.5400   -1.2990    0.8070 c3        1 MOL     -0.268649
     24 H8          5.1280   -1.1120    2.7490 hn        1 MOL      0.269074
     25 H9          5.6360   -2.1910    1.0590 h1        1 MOL     -0.028484
     26 H10         8.0730   -0.3940    0.4900 hc        1 MOL      0.083421
     27 H11         7.9550   -1.6440    1.7510 hc        1 MOL      0.083421
     28 H12         7.8300   -2.0360    0.0610 hc        1 MOL      0.083421
     29 N3          5.6750    0.4190   -0.9360 n         1 MOL     -0.139202
     30 C10         5.2500    0.9630   -2.2560 c3        1 MOL      0.050082
     31 C11         5.0120    2.4650   -2.2810 c         1 MOL      0.452255
     32 O6          5.1290    3.0630   -3.3440 o         1 MOL     -0.521477
     33 C12         6.2380    0.5030   -3.3680 c3        1 MOL     -0.254627
     34 C13         6.9270   -0.8480   -3.1850 c         1 MOL      0.844671
     35 O7          8.0720   -0.8160   -2.7020 o         1 MOL     -0.746816
     36 O8          6.4120   -1.8620   -3.6790 o         1 MOL     -0.746816
     37 H13         6.4440    0.8770   -0.4520 hn        1 MOL      0.186333
     38 H14         4.2790    0.5540   -2.5450 h1        1 MOL      0.047649
     39 H15         6.9870    1.2860   -3.5280 hc        1 MOL      0.042688
     40 H16         5.6460    0.3940   -4.2840 hc        1 MOL      0.042688
     41 N4          4.8940    3.1160   -1.1170 n         1 MOL     -0.216760
     42 C14         4.6330    4.5520   -0.9880 c3        1 MOL     -0.169026
     43 C15         3.2510    5.1040   -1.4240 c         1 MOL      0.517516
     44 O9          3.1860    6.3060   -1.7840 o         1 MOL     -0.565492
     45 H17         4.6980    2.5300   -0.3200 hn        1 MOL      0.174321
     46 H18         5.4280    5.0710   -1.5210 h1        1 MOL      0.117046
     47 H19         4.6700    4.8550    0.0560 h1        1 MOL      0.117046
     48 N5          2.2420    4.3460   -1.4110 n         1 MOL     -0.196695
     49 C16         0.9800    4.7190   -2.0730 c3        1 MOL     -0.275813
     50 C17         0.2260    5.6800   -1.1880 c         1 MOL      0.577003
     51 O10         0.5820    5.9650   -0.0660 o         1 MOL     -0.451057
     52 C18         0.1010    3.4520   -2.3140 c3        1 MOL     -0.247948
     53 C19         0.5730    2.4680   -3.3920 c         1 MOL      0.668062
     54 N6          1.3620    1.4820   -2.9770 n         1 MOL     -0.752120
     55 O11         0.2810    2.5560   -4.5620 o         1 MOL     -0.571781
     56 H20         2.3580    3.4280   -0.9940 hn        1 MOL      0.221908
     57 H21         1.2660    5.1180   -3.0450 h1        1 MOL      0.169139
     58 H22        -0.8740    3.7780   -2.6620 hc        1 MOL      0.117582
     59 H23         0.0520    2.9560   -1.3380 hc        1 MOL      0.117582
     60 H24         1.6990    1.4800   -2.0250 hn        1 MOL      0.369511
     61 H25         1.6300    0.7820   -3.6460 hn        1 MOL      0.369511
     62 N7         -0.8430    6.2820   -1.7750 n         1 MOL     -0.434338
     63 C20        -1.7960    7.1650   -1.0720 c3        1 MOL      0.003022
     64 C21        -3.2600    6.6480   -1.0840 c         1 MOL      0.629855
     65 O12        -3.7230    6.0720   -2.0800 o         1 MOL     -0.523283
     66 H26        -1.1490    6.0800   -2.7090 hn        1 MOL      0.289865
     67 H27        -1.9140    8.0710   -1.6680 h1        1 MOL      0.053047
     68 H28        -1.4040    7.4670   -0.1030 h1        1 MOL      0.053047
     69 N8         -4.0120    6.8820    0.0110 n         1 MOL     -0.644641
     70 C22        -5.3560    6.1960    0.2290 c3        1 MOL      0.020666
     71 C23        -5.2240    4.8260    0.9280 c         1 MOL      0.415394
     72 O13        -6.1600    4.4200    1.6150 o         1 MOL     -0.523494
     73 C24        -6.2710    7.0980    1.0830 c3        1 MOL      0.493888
     74 C25        -5.7720    7.2680    2.5380 c3        1 MOL     -0.426894
     75 O14        -6.3920    8.3640    0.4660 oh        1 MOL     -0.643055
     76 H29        -3.6020    7.4220    0.7600 hn        1 MOL      0.302833
     77 H30        -5.8690    6.0890   -0.7280 h1        1 MOL      0.116029
     78 H31        -7.2300    6.5690    1.0900 h1        1 MOL      0.005177
     79 H32        -5.6210    8.8640    0.7530 ho        1 MOL      0.380783
     80 H33        -5.7190    6.3230    3.0640 hc        1 MOL      0.099422
     81 H34        -4.8300    7.8030    2.6630 hc        1 MOL      0.099422
     82 H35        -6.5260    7.9140    3.0000 hc        1 MOL      0.099422
     83 N9         -4.1050    4.1040    0.6790 n         1 MOL     -0.206638
     84 C26        -3.7530    2.7330    1.2590 c3        1 MOL     -0.028181
     85 C27        -3.4420    1.7480    0.1620 c         1 MOL      0.634284
     86 O15        -3.6280    2.0560   -0.9840 o         1 MOL     -0.487953
     87 C28        -2.4860    2.9530    2.1970 c3        1 MOL      0.039679
     88 C29        -1.2330    3.7310    1.6280 c3        1 MOL      0.150173
     89 C30        -3.1330    3.5650    3.4770 c3        1 MOL     -0.505146
     90 C31         0.0160    3.6000    2.4730 c3        1 MOL     -0.118796
     91 H36        -3.5490    4.4660   -0.0800 hn        1 MOL      0.116948
     92 H37        -4.6470    2.4260    1.7900 h1        1 MOL      0.094808
     93 H38        -2.1540    1.9380    2.4320 hc        1 MOL      0.042290
     94 H39        -1.4000    4.7880    1.4120 hc        1 MOL     -0.011054
     95 H40        -1.0530    3.3850    0.6100 hc        1 MOL     -0.011054
     96 H41        -3.5800    4.5200    3.2130 hc        1 MOL      0.132816
     97 H42        -3.9320    2.9240    3.8520 hc        1 MOL      0.132816
     98 H43        -2.3100    3.6080    4.1950 hc        1 MOL      0.132816
     99 H44         0.1630    2.5280    2.5720 hc        1 MOL      0.029233
    100 H45         0.8310    4.1160    1.9670 hc        1 MOL      0.029233
    101 H46        -0.1200    4.0720    3.4470 hc        1 MOL      0.029233
    102 N10        -2.8870    0.5820    0.4770 n         1 MOL     -0.655420
    103 C32        -1.8250    0.0270   -0.4610 c3        1 MOL     -0.083952
    104 C33        -2.4100   -1.0120   -1.4490 c         1 MOL      0.632889
    105 O16        -1.9360   -1.1130   -2.5560 o         1 MOL     -0.544565
    106 C34        -0.7360   -0.5550    0.4460 c3        1 MOL      0.128433
    107 C35         0.3400   -1.3950   -0.2690 c         1 MOL      0.728833
    108 O17         1.3880   -0.8570   -0.7430 o         1 MOL     -0.791831
    109 O18         0.2100   -2.6280   -0.4190 o         1 MOL     -0.791831
    110 H47        -2.7050    0.5010    1.4750 hn        1 MOL      0.323782
    111 H48        -1.5210    0.9120   -1.0230 h1        1 MOL      0.067688
    112 H49        -1.2800   -1.2390    1.1020 hc        1 MOL     -0.028461
    113 H50        -0.2590    0.2090    1.0570 hc        1 MOL     -0.028461
    114 N11        -3.4000   -1.7990   -0.9770 n         1 MOL     -0.319099
    115 C36        -3.9950   -2.7990   -1.7880 c3        1 MOL      0.044255
    116 C37        -4.5080   -3.9240   -0.8110 c         1 MOL      0.152008
    117 O19        -4.8510   -3.6390    0.3080 o         1 MOL     -0.392551
    118 C38        -5.1420   -2.0710   -2.4590 c3        1 MOL     -0.380553
    119 C39        -6.0430   -1.1650   -1.6370 ca        1 MOL      0.075200
    120 C40        -7.0050   -1.8150   -0.8220 ca        1 MOL     -0.060951
    121 C41        -6.0860    0.2070   -1.7620 ca        1 MOL     -0.060951
    122 C42        -8.0710   -1.1080   -0.2300 ca        1 MOL     -0.255472
    123 C43        -7.0290    0.9480   -0.9610 ca        1 MOL     -0.255472
    124 C44        -7.9760    0.2790   -0.1680 ca        1 MOL      0.022027
    125 H51        -3.8260   -1.5710   -0.0890 hn        1 MOL      0.301469
    126 H52        -3.3540   -3.2930   -2.5230 h1        1 MOL      0.057029
    127 H53        -5.7530   -2.8640   -2.8850 hc        1 MOL      0.132651
    128 H54        -4.7100   -1.4990   -3.2880 hc        1 MOL      0.132651
    129 H55        -7.0250   -2.8870   -0.7130 ha        1 MOL      0.122027
    130 H56        -5.5470    0.6410   -2.5970 ha        1 MOL      0.122027
    131 H57        -8.6720   -1.7620    0.3860 ha        1 MOL      0.136710
    132 H58        -7.0390    2.0010   -1.1870 ha        1 MOL      0.136710
    133 H59        -8.6780    0.8170    0.4440 ha        1 MOL      0.085736
    134 N12        -4.4020   -5.1840   -1.2530 n         1 MOL      0.192946
    135 C45        -4.6780   -6.3550   -0.4620 c3        1 MOL     -0.094533
    136 C46        -4.0290   -6.2910    0.9460 c         1 MOL      0.432266
    137 O20        -4.6630   -6.6570    1.8930 o         1 MOL     -0.520884
    138 C47        -4.1880   -7.5770   -1.2600 c3        1 MOL      0.113661
    139 C48        -4.4120   -7.1510   -2.6760 c3        1 MOL     -0.076701
    140 C49        -4.2180   -5.5740   -2.6340 c3        1 MOL     -0.163872
    141 H60        -5.7480   -6.4290   -0.2730 h1        1 MOL      0.055213
    142 H61        -3.1600   -7.8580   -1.0300 hc        1 MOL      0.004955
    143 H62        -4.7110   -8.5140   -1.0630 hc        1 MOL      0.004955
    144 H63        -3.6570   -7.6030   -3.3260 hc        1 MOL      0.038661
    145 H64        -5.3750   -7.4040   -3.1030 hc        1 MOL      0.038661
    146 H65        -3.2430   -5.2020   -2.9280 h1        1 MOL      0.070355
    147 H66        -4.9880   -5.1760   -3.3090 h1        1 MOL      0.070355
    148 N13        -2.8060   -5.8370    1.1010 n         1 MOL     -0.323638
    149 C50        -2.0930   -5.6050    2.3900 c3        1 MOL     -0.025276
    150 C51        -2.6450   -4.3920    3.2420 c         1 MOL      0.359114
    151 O21        -2.3280   -4.3600    4.4670 o         1 MOL     -0.538173
    152 C52        -0.5710   -5.5320    2.2060 c3        1 MOL     -0.066638
    153 C53         0.3830   -5.6840    3.3820 c3        1 MOL     -0.116508
    154 C54         1.7920   -6.0060    2.9010 c         1 MOL      0.642121
    155 O22         1.9560   -5.9440    1.7030 o         1 MOL     -0.694581
    156 O23         2.6530   -6.3410    3.7540 o         1 MOL     -0.694581
    157 H67        -2.3010   -5.6030    0.2560 hn        1 MOL      0.206680
    158 H68        -2.2080   -6.4690    3.0360 h1        1 MOL      0.113759
    159 H69        -0.3950   -4.5230    1.8230 hc        1 MOL      0.049294
    160 H70        -0.3250   -6.1600    1.3450 hc        1 MOL      0.049294
    161 H71         0.1170   -6.3500    4.2040 hc        1 MOL      0.040616
    162 H72         0.4600   -4.7420    3.9340 hc        1 MOL      0.040616
    163 N14        -3.5680   -3.5420    2.7560 n         1 MOL     -0.016364
    164 C55        -4.3730   -2.6910    3.5950 c3        1 MOL     -0.153258
    165 H73        -5.4220   -2.8030    3.3250 h1        1 MOL      0.068858
    166 H74        -4.2340   -2.9730    4.6390 h1        1 MOL      0.068858
    167 H75        -4.0700   -1.6520    3.4560 h1        1 MOL      0.068858
    168 H76        -3.6840   -3.6970    1.7630 hn        1 MOL      0.091067
    169 Ca1         2.4020   -3.0390   -1.8230 Ca        1 MOL      1.802056
    170 O24         0.2090   -2.4860   -3.3650 oh        1 MOL     -0.824492
    171 H77        -0.1720   -3.1670   -3.9330 ho        1 MOL      0.396799
    172 H78        -0.5480   -2.0620   -2.9720 ho        1 MOL      0.396799
    173 O25         3.3120   -3.8800    0.6460 oh        1 MOL     -0.824492
    174 H79         2.8930   -4.6700    1.0050 ho        1 MOL      0.396799
    175 H80         3.8580   -3.5530    1.3620 ho        1 MOL      0.396799
    176 O26         3.6810   -1.6210   -3.7610 oh        1 MOL     -0.824492
    177 H81         3.5090   -1.1180   -4.5600 ho        1 MOL      0.396799
    178 H82         4.5790   -1.9280   -3.8490 ho        1 MOL      0.396799
    179 O27         4.6880   -4.2050   -2.1470 oh        1 MOL     -0.824492
    180 H83         5.5750   -3.8370   -2.1580 ho        1 MOL      0.396799
    181 H84         4.8190   -5.1510   -2.0610 ho        1 MOL      0.396799
    182 O28         2.5500   -4.3640   -4.0910 oh        1 MOL     -0.824492
    183 H85         3.2510   -4.9990   -3.9870 ho        1 MOL      0.396799
    184 H86         2.8180   -3.8410   -4.8500 ho        1 MOL      0.396799
    185 O29         1.3990   -5.5210   -1.3330 oh        1 MOL     -0.824492
    186 H87         1.6270   -6.0630   -0.5650 ho        1 MOL      0.396799
    187 H88         0.7530   -6.0450   -1.8090 ho        1 MOL      0.396799
@<TRIPOS>BOND
     1    1    2 1   
     2    1    4 1   
     3    1    5 1   
     4    1    6 1   
     5    2    3 2   
     6    2    7 1   
     7    7    8 1   
     8    7   15 1   
     9    8    9 1   
    10    8   11 1   
    11    8   16 1   
    12    9   10 2   
    13    9   19 1   
    14   11   12 1   
    15   11   17 1   
    16   11   18 1   
    17   12   13 1   
    18   12   14 1   
    19   19   20 1   
    20   19   24 1   
    21   20   21 1   
    22   20   23 1   
    23   20   25 1   
    24   21   22 2   
    25   21   29 1   
    26   23   26 1   
    27   23   27 1   
    28   23   28 1   
    29   29   30 1   
    30   29   37 1   
    31   30   31 1   
    32   30   33 1   
    33   30   38 1   
    34   31   32 2   
    35   31   41 1   
    36   33   34 1   
    37   33   39 1   
    38   33   40 1   
    39   34   35 1   
    40   34   36 1   
    41   41   42 1   
    42   41   45 1   
    43   42   43 1   
    44   42   46 1   
    45   42   47 1   
    46   43   44 2   
    47   43   48 1   
    48   48   49 1   
    49   48   56 1   
    50   49   50 1   
    51   49   52 1   
    52   49   57 1   
    53   50   51 2   
    54   50   62 1   
    55   52   53 1   
    56   52   58 1   
    57   52   59 1   
    58   53   54 1   
    59   53   55 2   
    60   54   60 1   
    61   54   61 1   
    62   62   63 1   
    63   62   66 1   
    64   63   64 1   
    65   63   67 1   
    66   63   68 1   
    67   64   65 2   
    68   64   69 1   
    69   69   70 1   
    70   69   76 1   
    71   70   71 1   
    72   70   73 1   
    73   70   77 1   
    74   71   72 2   
    75   71   83 1   
    76   73   74 1   
    77   73   75 1   
    78   73   78 1   
    79   74   80 1   
    80   74   81 1   
    81   74   82 1   
    82   75   79 1   
    83   83   84 1   
    84   83   91 1   
    85   84   85 1   
    86   84   87 1   
    87   84   92 1   
    88   85   86 2   
    89   85  102 1   
    90   87   88 1   
    91   87   89 1   
    92   87   93 1   
    93   88   90 1   
    94   88   94 1   
    95   88   95 1   
    96   89   96 1   
    97   89   97 1   
    98   89   98 1   
    99   90   99 1   
   100   90  100 1   
   101   90  101 1   
   102  102  103 1   
   103  102  110 1   
   104  103  104 1   
   105  103  106 1   
   106  103  111 1   
   107  104  105 2   
   108  104  114 1   
   109  106  107 1   
   110  106  112 1   
   111  106  113 1   
   112  107  108 1   
   113  107  109 1   
   114  114  115 1   
   115  114  125 1   
   116  115  116 1   
   117  115  118 1   
   118  115  126 1   
   119  116  117 2   
   120  116  134 1   
   121  118  119 1   
   122  118  127 1   
   123  118  128 1   
   124  119  120 ar  
   125  119  121 ar  
   126  120  122 ar  
   127  120  129 1   
   128  121  123 ar  
   129  121  130 1   
   130  122  124 ar  
   131  122  131 1   
   132  123  124 ar  
   133  123  132 1   
   134  124  133 1   
   135  134  135 1   
   136  134  140 1   
   137  135  136 1   
   138  135  138 1   
   139  135  141 1   
   140  136  137 2   
   141  136  148 1   
   142  138  139 1   
   143  138  142 1   
   144  138  143 1   
   145  139  140 1   
   146  139  144 1   
   147  139  145 1   
   148  140  146 1   
   149  140  147 1   
   150  148  149 1   
   151  148  157 1   
   152  149  150 1   
   153  149  152 1   
   154  149  158 1   
   155  150  151 2   
   156  150  163 1   
   157  152  153 1   
   158  152  159 1   
   159  152  160 1   
   160  153  154 1   
   161  153  161 1   
   162  153  162 1   
   163  154  155 1   
   164  154  156 1   
   165  163  164 1   
   166  163  168 1   
   167  164  165 1   
   168  164  166 1   
   169  164  167 1   
   170  170  171 1   
   171  170  172 1   
   172  173  174 1   
   173  173  175 1   
   174  176  177 1   
   175  176  178 1   
   176  179  180 1   
   177  179  181 1   
   178  182  183 1   
   179  182  184 1   
   180  185  186 1   
   181  185  187 1   
@<TRIPOS>SUBSTRUCTURE
     1 MOL         1 TEMP              0 ****  ****    0 ROOT
