@<TRIPOS>MOLECULE
MOL
  194   186     1     0     0
SMALL
resp


@<TRIPOS>ATOM
      1 C1         -6.4270   -1.0660    3.5100 c3        1 MOL     -0.404533
      2 C2         -6.5960   -1.2160    1.9490 c         1 MOL      0.782589
      3 O1         -5.7860   -0.7610    1.1210 o         1 MOL     -0.622240
      4 H1         -7.3690   -0.7340    3.9460 hc        1 MOL      0.100540
      5 H2         -6.1480   -2.0280    3.9400 hc        1 MOL      0.100540
      6 H3         -5.6500   -0.3330    3.7240 hc        1 MOL      0.100540
      7 N1         -7.7420   -1.8330    1.5730 n         1 MOL     -0.560742
      8 C3         -8.2250   -1.9450    0.1470 c3        1 MOL      0.000328
      9 C4         -8.2450   -0.5910   -0.6130 c         1 MOL      0.537201
     10 O2         -8.4650   -0.5340   -1.8530 o         1 MOL     -0.492926
     11 C5         -7.5820   -3.1780   -0.5490 c3        1 MOL     -0.166066
     12 C6         -7.9380   -4.5660    0.0130 c         1 MOL      0.749722
     13 O3         -7.1920   -5.5230   -0.2270 o         1 MOL     -0.661870
     14 O4         -8.9390   -4.6880    0.7320 o         1 MOL     -0.661870
     15 H4         -8.2340   -2.4160    2.2370 hn        1 MOL      0.308536
     16 H5         -9.3090   -2.0460    0.1560 h1        1 MOL      0.078728
     17 H6         -6.4930   -3.1290   -0.5620 hc        1 MOL      0.052930
     18 H7         -7.9830   -3.1410   -1.5610 hc        1 MOL      0.052930
     19 N2         -8.2200    0.5930    0.0950 n         1 MOL     -0.471766
     20 C7         -8.1700    1.8920   -0.5490 c3        1 MOL     -0.028845
     21 C8         -6.8090    2.3720   -1.0670 c         1 MOL      0.459262
     22 O5         -6.7170    3.3080   -1.9130 o         1 MOL     -0.537334
     23 C9         -8.9070    2.9750    0.2990 c3        1 MOL      0.109484
     24 C10       -10.3630    2.6610    0.5250 c3        1 MOL      0.087907
     25 C11       -11.0320    3.7780    1.2460 c3        1 MOL      0.028998
     26 C12       -12.3370    3.3070    1.9350 c3        1 MOL     -0.028319
     27 N3        -12.8750    4.3110    2.8520 n4        1 MOL     -0.128656
     28 H8         -8.3850    0.5000    1.0880 hn        1 MOL      0.257810
     29 H9         -8.7190    1.8090   -1.4860 h1        1 MOL      0.132289
     30 H10        -8.7780    3.9390   -0.2080 hc        1 MOL     -0.027200
     31 H11        -8.4750    3.0830    1.2870 hc        1 MOL     -0.027200
     32 H12       -10.5000    1.8310    1.2280 hc        1 MOL     -0.020297
     33 H13       -10.8070    2.3970   -0.4300 hc        1 MOL     -0.020297
     34 H14       -11.1160    4.6500    0.6030 hc        1 MOL      0.013723
     35 H15       -10.4530    4.1040    2.1100 hc        1 MOL      0.013723
     36 H16       -12.1850    2.3250    2.3830 hx        1 MOL      0.081313
     37 H17       -13.1400    3.1390    1.2110 hx        1 MOL      0.081313
     38 H18       -12.3310    4.3080    3.7050 hn        1 MOL      0.222294
     39 H19       -12.8120    5.2550    2.5030 hn        1 MOL      0.222294
     40 H20       -13.7840    4.0650    3.2150 hn        1 MOL      0.222294
     41 N4         -5.7530    1.6630   -0.6140 n         1 MOL     -0.269060
     42 C13        -4.3650    1.8530   -1.1130 c3        1 MOL     -0.035496
     43 C14        -4.0640    1.3770   -2.5130 c         1 MOL      0.650017
     44 O6         -4.7180    0.5110   -3.0620 o         1 MOL     -0.457533
     45 C15        -3.4170    1.1400   -0.0470 c3        1 MOL     -0.200588
     46 C16        -1.9750    1.4860   -0.3910 c         1 MOL      0.611704
     47 O7         -1.3380    0.5160   -0.8970 o         1 MOL     -0.639910
     48 O8         -1.4780    2.6180   -0.3600 o         1 MOL     -0.639910
     49 H21        -5.9160    0.8480   -0.0500 hn        1 MOL      0.209125
     50 H22        -4.1570    2.9270   -1.0280 h1        1 MOL      0.048288
     51 H23        -3.5890    0.0700   -0.1420 hc        1 MOL      0.063427
     52 H24        -3.6860    1.4360    0.9660 hc        1 MOL      0.063427
     53 N5         -3.1650    2.0330   -3.2740 n         1 MOL     -0.470412
     54 C17        -2.8760    1.7820   -4.6640 c3        1 MOL     -0.015980
     55 C18        -2.2690    0.4330   -4.9850 c         1 MOL      0.437039
     56 O9         -2.3570   -0.0120   -6.1130 o         1 MOL     -0.541315
     57 H25        -2.6800    2.8320   -2.8940 hn        1 MOL      0.298150
     58 H26        -2.2280    2.5790   -5.0410 h1        1 MOL      0.083703
     59 H27        -3.7890    1.8940   -5.2480 h1        1 MOL      0.083703
     60 N6         -1.6980   -0.2410   -3.9480 n         1 MOL     -0.021546
     61 C19        -1.2200   -1.5830   -3.9520 c3        1 MOL      0.020764
     62 C20        -1.7930   -2.4930   -2.8140 c         1 MOL      0.468751
     63 O10        -1.2940   -3.6210   -2.5770 o         1 MOL     -0.526776
     64 C21         0.3390   -1.5770   -3.8490 c3        1 MOL     -0.476387
     65 C22         1.0400   -0.8510   -4.9870 c         1 MOL      0.758483
     66 N7          0.8020   -1.2700   -6.2010 n         1 MOL     -0.783126
     67 O11         1.7890    0.0680   -4.7390 o         1 MOL     -0.594214
     68 H28        -1.5770    0.3320   -3.1160 hn        1 MOL     -0.044661
     69 H29        -1.4210   -2.0790   -4.8970 h1        1 MOL      0.075608
     70 H30         0.6700   -2.6110   -3.9560 hc        1 MOL      0.163507
     71 H31         0.7160   -1.2030   -2.8990 hc        1 MOL      0.163507
     72 H32         0.0660   -1.9440   -6.3550 hn        1 MOL      0.377440
     73 H33         1.1230   -0.8340   -7.0540 hn        1 MOL      0.377440
     74 N8         -2.8690   -2.0310   -2.1380 n         1 MOL     -0.167908
     75 C23        -3.5570   -2.6670   -1.0090 c3        1 MOL     -0.198500
     76 C24        -2.7500   -2.8970    0.2370 c         1 MOL      0.574863
     77 O12        -2.9930   -3.8380    1.0240 o         1 MOL     -0.547104
     78 H34        -3.2560   -1.1690   -2.4860 hn        1 MOL      0.084397
     79 H35        -4.0160   -3.6020   -1.3380 h1        1 MOL      0.142833
     80 H36        -4.4050   -2.0570   -0.7090 h1        1 MOL      0.142833
     81 N9         -1.7580   -2.0570    0.5410 n         1 MOL     -0.294867
     82 C25        -0.9500   -2.0850    1.8090 c3        1 MOL     -0.225142
     83 C26         0.3730   -1.4060    1.6530 c         1 MOL      0.577230
     84 O13         0.4780   -0.2670    1.1760 o         1 MOL     -0.495891
     85 C27        -1.7040   -1.3410    2.9280 c3        1 MOL     -0.183935
     86 C28        -0.9280   -1.0360    4.2160 ca        1 MOL     -0.007399
     87 C29        -0.7340   -2.0660    5.1480 ca        1 MOL     -0.102286
     88 C30        -0.5950    0.3000    4.5240 ca        1 MOL     -0.102286
     89 C31        -0.0060   -1.8150    6.3240 ca        1 MOL     -0.329418
     90 C32         0.0340    0.5660    5.7490 ca        1 MOL     -0.329418
     91 C33         0.3240   -0.4850    6.6390 ca        1 MOL      0.385159
     92 O14         1.0460   -0.1180    7.7380 oh        1 MOL     -0.501625
     93 H37        -1.7290   -1.2160   -0.0180 hn        1 MOL      0.233659
     94 H38        -0.6530   -3.1170    1.9780 h1        1 MOL      0.148547
     95 H39        -2.5770   -1.9320    3.2050 hc        1 MOL      0.132846
     96 H40        -2.2370   -0.4540    2.5930 hc        1 MOL      0.132846
     97 H41        -0.9390   -3.1010    4.9450 ha        1 MOL      0.144381
     98 H42        -0.8650    1.1140    3.8580 ha        1 MOL      0.144381
     99 H43         0.2340   -2.6360    6.9720 ha        1 MOL      0.171891
    100 H44         0.2920    1.5800    5.9950 ha        1 MOL      0.171891
    101 H45         1.2560    0.8180    7.6770 ho        1 MOL      0.361185
    102 N10         1.5070   -2.0780    2.0980 n         1 MOL     -0.467078
    103 C34         2.8730   -1.6480    1.9200 c3        1 MOL     -0.011355
    104 C35         3.4250   -2.1350    0.5300 c         1 MOL      0.276464
    105 O15         4.0330   -1.3000   -0.0680 o         1 MOL     -0.273112
    106 C36         3.7460   -2.0930    3.1000 c3        1 MOL      0.098986
    107 C37         3.0510   -1.6410    4.3620 c3        1 MOL      0.239671
    108 C38         5.1890   -1.5530    2.9400 c3        1 MOL     -0.175503
    109 C39         3.9920   -1.6210    5.5810 c3        1 MOL     -0.444947
    110 H46         1.4400   -2.9790    2.5580 hn        1 MOL      0.261004
    111 H47         2.9130   -0.5780    2.1250 h1        1 MOL      0.081783
    112 H48         3.7900   -3.1780    3.1680 hc        1 MOL     -0.035909
    113 H49         2.2260   -2.3300    4.5620 hc        1 MOL     -0.002359
    114 H50         2.6470   -0.6390    4.2120 hc        1 MOL     -0.002359
    115 H51         5.7250   -2.0300    2.1250 hc        1 MOL      0.037301
    116 H52         5.1530   -0.4890    2.7120 hc        1 MOL      0.037301
    117 H53         5.7610   -1.6530    3.8680 hc        1 MOL      0.037301
    118 H54         4.5810   -2.5240    5.7500 hc        1 MOL      0.106772
    119 H55         4.6550   -0.7600    5.5000 hc        1 MOL      0.106772
    120 H56         3.4090   -1.3530    6.4660 hc        1 MOL      0.106772
    121 N11         3.1590   -3.4270    0.1300 n         1 MOL     -0.222809
    122 C40         3.5920   -4.0090   -1.1660 c3        1 MOL     -0.102252
    123 C41         5.0540   -3.8360   -1.5820 c         1 MOL      0.508460
    124 O16         5.3140   -3.4070   -2.7070 o         1 MOL     -0.536331
    125 C42         3.1900   -5.4690   -1.1310 c3        1 MOL     -0.130394
    126 O17         3.6640   -6.0480    0.1190 oh        1 MOL     -0.640851
    127 H57         2.7060   -3.9920    0.8270 hn        1 MOL      0.282751
    128 H58         2.8700   -3.6890   -1.9240 h1        1 MOL      0.120437
    129 H59         3.7030   -5.9890   -1.9400 h1        1 MOL      0.147482
    130 H60         2.1020   -5.4860   -1.0730 h1        1 MOL      0.147482
    131 H61         3.4750   -6.9780    0.2200 ho        1 MOL      0.443395
    132 N12         6.0400   -3.9800   -0.7310 n         1 MOL     -0.122690
    133 C43         7.4400   -3.6510   -0.9210 c3        1 MOL      0.037249
    134 C44         7.6970   -2.2160   -1.3320 c         1 MOL      0.514143
    135 O18         8.7490   -1.9440   -1.9030 o         1 MOL     -0.534433
    136 C45         8.1590   -4.7480   -1.6890 c3        1 MOL     -0.235329
    137 H62         5.7590   -4.4460    0.1220 hn        1 MOL      0.170313
    138 H63         7.8990   -3.7030    0.0670 h1        1 MOL      0.086825
    139 H64         7.7870   -5.0180   -2.6820 hc        1 MOL      0.074400
    140 H65         9.2300   -4.5990   -1.7290 hc        1 MOL      0.074400
    141 H66         8.0230   -5.7310   -1.2330 hc        1 MOL      0.074400
    142 N13         6.8110   -1.2370   -1.0370 n         1 MOL     -0.319269
    143 C46         6.9960    0.1650   -1.4200 c3        1 MOL      0.310474
    144 C47         7.1230    1.1800   -0.2930 c         1 MOL      0.336090
    145 O19         6.5610    0.9020    0.8090 o         1 MOL     -0.442118
    146 C48         6.1350    0.6520   -2.5980 c3        1 MOL     -0.240080
    147 H67         5.9610   -1.4590   -0.5310 hn        1 MOL      0.005467
    148 H68         8.0050    0.2100   -1.8370 h1        1 MOL     -0.031623
    149 H69         6.2030   -0.0340   -3.4410 hc        1 MOL      0.068699
    150 H70         5.0650    0.7540   -2.4200 hc        1 MOL      0.068699
    151 H71         6.5540    1.5920   -2.9500 hc        1 MOL      0.068699
    152 N14         7.7950    2.2950   -0.5430 n         1 MOL     -0.337532
    153 C49         8.0900    3.3860    0.3600 c3        1 MOL     -0.103065
    154 C50         8.6640    3.0750    1.7300 c         1 MOL      0.511704
    155 O20         8.5050    3.6980    2.7940 o         1 MOL     -0.507363
    156 C51         7.0030    4.4360    0.3930 c3        1 MOL      0.204075
    157 C52         6.6210    4.9950   -0.9990 c3        1 MOL      0.061663
    158 C53         5.4580    5.9750   -0.7760 c         1 MOL      0.465266
    159 O21         5.6160    7.1820   -0.5260 o         1 MOL     -0.600871
    160 O22         4.2730    5.4610   -0.6830 o         1 MOL     -0.600871
    161 H72         8.1990    2.3200   -1.4720 hn        1 MOL      0.293270
    162 H73         8.9580    3.8570   -0.1030 h1        1 MOL      0.070892
    163 H74         7.3920    5.2070    1.0540 hc        1 MOL     -0.018349
    164 H75         6.1810    3.8980    0.8660 hc        1 MOL     -0.018349
    165 H76         6.2100    4.2200   -1.6440 hc        1 MOL     -0.056179
    166 H77         7.4180    5.4900   -1.5510 hc        1 MOL     -0.056179
    167 N15         9.3850    1.9690    1.8400 n         1 MOL     -0.396235
    168 C54         9.5670    1.2050    3.1360 c3        1 MOL     -0.074322
    169 H78        10.6080    1.2700    3.4510 h1        1 MOL      0.080761
    170 H79         8.9270    1.6360    3.9050 h1        1 MOL      0.080761
    171 H80         9.2990    0.1600    2.9820 h1        1 MOL      0.080761
    172 H81         9.5360    1.4320    0.9980 hn        1 MOL      0.249221
    173 Ca1         1.1040    2.0670   -0.2370 Ca        1 MOL      1.794663
    174 O23         2.5060    0.3060   -1.7730 oh        1 MOL     -0.835815
    175 H82         2.4620    0.0870   -2.6980 ho        1 MOL      0.395024
    176 H83         3.4390    0.2560   -1.5520 ho        1 MOL      0.395024
    177 O24         0.5130    4.6530   -0.9740 oh        1 MOL     -0.835815
    178 H84         1.1610    5.3600   -0.9780 ho        1 MOL      0.395024
    179 H85         0.0450    4.7430   -1.8020 ho        1 MOL      0.395024
    180 O25         0.3580    2.7910    2.1810 oh        1 MOL     -0.835815
    181 O26         3.3020    3.2530   -1.7750 oh        1 MOL     -0.835815
    182 H86        -0.4320    3.3440    2.1910 ho        1 MOL      0.395024
    183 H87         3.7300    4.0520   -1.4590 ho        1 MOL      0.395024
    184 H88         0.9050    3.1510    2.8790 ho        1 MOL      0.395024
    185 H89         3.6020    3.1670   -2.6770 ho        1 MOL      0.395024
    186 O27         3.6880    1.4780    0.6590 oh        1 MOL     -0.835815
    187 H90         4.2110    2.2630    0.8270 ho        1 MOL      0.395024
    188 H91         4.3240    0.7680    0.6720 ho        1 MOL      0.395024
    189 O28         2.6830    4.2800    0.9470 oh        1 MOL     -0.835815
    190 H92         2.6010    4.8680    1.6910 ho        1 MOL      0.395024
    191 H93         3.2720    4.7280    0.3460 ho        1 MOL      0.395024
    192 O29         0.6120    1.9340   -2.9700 oh        1 MOL     -0.835815
    193 H94         0.2310    2.7690   -3.2560 ho        1 MOL      0.395024
    194 H95         0.7610    1.4460   -3.7800 ho        1 MOL      0.395024
@<TRIPOS>BOND
     1    1    2 1   
     2    1    4 1   
     3    1    5 1   
     4    1    6 1   
     5    2    3 2   
     6    2    7 1   
     7    7    8 1   
     8    7   15 1   
     9    8    9 1   
    10    8   11 1   
    11    8   16 1   
    12    9   10 2   
    13    9   19 1   
    14   11   12 1   
    15   11   17 1   
    16   11   18 1   
    17   12   13 1   
    18   12   14 1   
    19   19   20 1   
    20   19   28 1   
    21   20   21 1   
    22   20   23 1   
    23   20   29 1   
    24   21   22 2   
    25   21   41 1   
    26   23   24 1   
    27   23   30 1   
    28   23   31 1   
    29   24   25 1   
    30   24   32 1   
    31   24   33 1   
    32   25   26 1   
    33   25   34 1   
    34   25   35 1   
    35   26   27 1   
    36   26   36 1   
    37   26   37 1   
    38   27   38 1   
    39   27   39 1   
    40   27   40 1   
    41   41   42 1   
    42   41   49 1   
    43   42   43 1   
    44   42   45 1   
    45   42   50 1   
    46   43   44 2   
    47   43   53 1   
    48   45   46 1   
    49   45   51 1   
    50   45   52 1   
    51   46   47 1   
    52   46   48 1   
    53   53   54 1   
    54   53   57 1   
    55   54   55 1   
    56   54   58 1   
    57   54   59 1   
    58   55   56 2   
    59   55   60 1   
    60   60   61 1   
    61   60   68 1   
    62   61   62 1   
    63   61   64 1   
    64   61   69 1   
    65   62   63 2   
    66   62   74 1   
    67   64   65 1   
    68   64   70 1   
    69   64   71 1   
    70   65   66 1   
    71   65   67 2   
    72   66   72 1   
    73   66   73 1   
    74   74   75 1   
    75   74   78 1   
    76   75   76 1   
    77   75   79 1   
    78   75   80 1   
    79   76   77 2   
    80   76   81 1   
    81   81   82 1   
    82   81   93 1   
    83   82   83 1   
    84   82   85 1   
    85   82   94 1   
    86   83   84 2   
    87   83  102 1   
    88   85   86 1   
    89   85   95 1   
    90   85   96 1   
    91   86   87 ar  
    92   86   88 ar  
    93   87   89 ar  
    94   87   97 1   
    95   88   90 ar  
    96   88   98 1   
    97   89   91 ar  
    98   89   99 1   
    99   90   91 ar  
   100   90  100 1   
   101   91   92 1   
   102   92  101 1   
   103  102  103 1   
   104  102  110 1   
   105  103  104 1   
   106  103  106 1   
   107  103  111 1   
   108  104  105 2   
   109  104  121 1   
   110  106  107 1   
   111  106  108 1   
   112  106  112 1   
   113  107  109 1   
   114  107  113 1   
   115  107  114 1   
   116  108  115 1   
   117  108  116 1   
   118  108  117 1   
   119  109  118 1   
   120  109  119 1   
   121  109  120 1   
   122  121  122 1   
   123  121  127 1   
   124  122  123 1   
   125  122  125 1   
   126  122  128 1   
   127  123  124 2   
   128  123  132 1   
   129  125  126 1   
   130  125  129 1   
   131  125  130 1   
   132  126  131 1   
   133  132  133 1   
   134  132  137 1   
   135  133  134 1   
   136  133  136 1   
   137  133  138 1   
   138  134  135 2   
   139  134  142 1   
   140  136  139 1   
   141  136  140 1   
   142  136  141 1   
   143  142  143 1   
   144  142  147 1   
   145  143  144 1   
   146  143  146 1   
   147  143  148 1   
   148  144  145 2   
   149  144  152 1   
   150  146  149 1   
   151  146  150 1   
   152  146  151 1   
   153  152  153 1   
   154  152  161 1   
   155  153  154 1   
   156  153  156 1   
   157  153  162 1   
   158  154  155 2   
   159  154  167 1   
   160  156  157 1   
   161  156  163 1   
   162  156  164 1   
   163  157  158 1   
   164  157  165 1   
   165  157  166 1   
   166  158  159 1   
   167  158  160 1   
   168  167  168 1   
   169  167  172 1   
   170  168  169 1   
   171  168  170 1   
   172  168  171 1   
   173  174  175 1   
   174  174  176 1   
   175  177  178 1   
   176  177  179 1   
   177  180  182 1   
   178  180  184 1   
   179  181  183 1   
   180  181  185 1   
   181  186  187 1   
   182  186  188 1   
   183  189  190 1   
   184  189  191 1   
   185  192  193 1   
   186  192  194 1   
@<TRIPOS>SUBSTRUCTURE
     1 MOL         1 TEMP              0 ****  ****    0 ROOT
