@<TRIPOS>MOLECULE
MOL
  178   175     1     0     0
SMALL
resp


@<TRIPOS>ATOM
      1 C1          2.0560   -1.6770    5.0610 c3        1 MOL     -0.266850
      2 C2          3.2310   -1.2260    4.1350 c         1 MOL      0.576274
      3 O1          3.0860   -0.3460    3.2920 o         1 MOL     -0.565205
      4 H1          2.0020   -2.7660    5.0740 hc        1 MOL      0.063875
      5 H2          2.2300   -1.3110    6.0720 hc        1 MOL      0.063875
      6 H3          1.1180   -1.2720    4.6820 hc        1 MOL      0.063875
      7 N1          4.3910   -1.8040    4.2450 n         1 MOL     -0.274602
      8 C3          5.7300   -1.4760    3.6860 c3        1 MOL     -0.013527
      9 C4          6.0290   -2.0680    2.2570 c         1 MOL      0.563717
     10 O2          7.0380   -1.7900    1.6350 o         1 MOL     -0.446330
     11 C5          6.8280   -1.9560    4.6490 c3        1 MOL     -0.247805
     12 C6          8.1870   -1.2900    4.3650 c         1 MOL      0.807520
     13 O3          9.2050   -1.9570    4.2830 o         1 MOL     -0.712316
     14 O4          8.2180   -0.1110    4.4530 o         1 MOL     -0.712316
     15 H4          4.5030   -2.4600    5.0050 hn        1 MOL      0.182971
     16 H5          5.6700   -0.3840    3.6090 h1        1 MOL      0.084373
     17 H6          6.9060   -3.0410    4.5950 hc        1 MOL      0.026856
     18 H7          6.5850   -1.5400    5.6210 hc        1 MOL      0.026856
     19 N2          5.1890   -3.0710    1.7270 n         1 MOL     -0.470704
     20 C7          5.2050   -3.6310    0.3500 c3        1 MOL      0.196887
     21 C8          4.9540   -2.6210   -0.7700 c         1 MOL      0.426930
     22 O5          3.9450   -2.7290   -1.5090 o         1 MOL     -0.666198
     23 C9          6.3940   -4.5380    0.1240 c3        1 MOL     -0.299579
     24 H8          4.3920   -3.3600    2.2820 hn        1 MOL      0.212277
     25 H9          4.3040   -4.2280    0.1930 h1        1 MOL      0.084899
     26 H10         6.3000   -5.0040   -0.8520 hc        1 MOL      0.075621
     27 H11         7.3760   -4.0710    0.2180 hc        1 MOL      0.075621
     28 H12         6.3630   -5.4600    0.7070 hc        1 MOL      0.075621
     29 N3          5.9280   -1.7710   -1.0980 n         1 MOL     -0.246844
     30 C10         6.0240   -0.9150   -2.2810 c3        1 MOL      0.015269
     31 C11         6.1610    0.5800   -1.8420 c         1 MOL      0.404664
     32 O6          6.7320    1.4540   -2.5260 o         1 MOL     -0.532916
     33 C12         7.1720   -1.3180   -3.2700 c3        1 MOL     -0.337825
     34 C13         8.5430   -1.3700   -2.6650 c         1 MOL      0.810953
     35 O7          8.6470   -1.4930   -1.4140 o         1 MOL     -0.728266
     36 O8          9.5900   -1.3240   -3.3670 o         1 MOL     -0.728266
     37 H13         6.8170   -1.7870   -0.6160 hn        1 MOL      0.292853
     38 H14         5.1260   -0.9930   -2.9010 h1        1 MOL      0.158953
     39 H15         7.0450   -0.6370   -4.1080 hc        1 MOL      0.038513
     40 H16         6.9840   -2.3390   -3.6020 hc        1 MOL      0.038513
     41 N4          5.8290    0.8620   -0.6360 n         1 MOL     -0.001226
     42 C14         5.7430    2.2040   -0.0110 c3        1 MOL     -0.231097
     43 C15         4.7130    3.1560   -0.6790 c         1 MOL      0.565111
     44 O9          4.8480    4.3810   -0.6720 o         1 MOL     -0.525197
     45 H17         5.6100    0.0250   -0.1100 hn        1 MOL      0.066419
     46 H18         6.7120    2.6840   -0.0250 h1        1 MOL      0.121281
     47 H19         5.4410    2.0630    1.0220 h1        1 MOL      0.121281
     48 N5          3.5940    2.5090   -1.1040 n         1 MOL     -0.402123
     49 C16         2.5210    3.1400   -1.8760 c3        1 MOL     -0.006718
     50 C17         1.8290    4.3190   -1.0830 c         1 MOL      0.559074
     51 O10         1.5460    4.2650    0.0960 o         1 MOL     -0.470503
     52 C18         1.4530    2.0330   -2.2360 c3        1 MOL     -0.266810
     53 C19         1.9470    1.0090   -3.1820 c         1 MOL      0.618262
     54 N6          1.8520    1.3060   -4.4810 n         1 MOL     -0.707775
     55 O11         2.4690   -0.0230   -2.7940 o         1 MOL     -0.657876
     56 H20         3.4790    1.5130   -1.0050 hn        1 MOL      0.283534
     57 H21         2.9900    3.5340   -2.7840 h1        1 MOL      0.068502
     58 H22         0.5890    2.5040   -2.6950 hc        1 MOL      0.128336
     59 H23         1.0590    1.4990   -1.3710 hc        1 MOL      0.128336
     60 H24         1.3400    2.1160   -4.7950 hn        1 MOL      0.336943
     61 H25         2.0590    0.5390   -5.1070 hn        1 MOL      0.336943
     62 N7          1.5370    5.4040   -1.8150 n         1 MOL     -0.461964
     63 C20         1.0620    6.7250   -1.3290 c3        1 MOL     -0.211288
     64 C21        -0.4360    6.9170   -1.3380 c         1 MOL      0.665433
     65 O12        -1.1700    6.2850   -2.0950 o         1 MOL     -0.537969
     66 H26         1.7060    5.4600   -2.8090 hn        1 MOL      0.297815
     67 H27         1.4620    7.4240   -2.0620 h1        1 MOL      0.128763
     68 H28         1.5350    6.8710   -0.3600 h1        1 MOL      0.128763
     69 N8         -0.8780    7.8080   -0.4940 n         1 MOL     -0.532403
     70 C22        -2.3230    7.9160   -0.2200 c3        1 MOL     -0.065710
     71 C23        -3.0430    6.5800    0.2640 c         1 MOL      0.357463
     72 O13        -4.2850    6.6590    0.5000 o         1 MOL     -0.578669
     73 C24        -2.6590    9.0130    0.8060 c3        1 MOL      0.466754
     74 C25        -2.0370    8.6070    2.1810 c3        1 MOL     -0.337665
     75 O14        -2.0990   10.1650    0.3430 oh        1 MOL     -0.643412
     76 H29        -0.3290    8.4740    0.0300 hn        1 MOL      0.253196
     77 H30        -2.8660    8.2000   -1.1250 h1        1 MOL      0.107920
     78 H31        -3.7380    9.1570    0.8010 h1        1 MOL      0.039489
     79 H32        -1.1410   10.0740    0.3370 ho        1 MOL      0.394372
     80 H33        -1.3010    7.8110    2.0680 hc        1 MOL      0.074324
     81 H34        -1.6920    9.4690    2.7670 hc        1 MOL      0.074324
     82 H35        -2.7340    8.1200    2.8580 hc        1 MOL      0.074324
     83 N9         -2.3320    5.5010    0.4310 n         1 MOL     -0.008735
     84 C26        -2.9210    4.1600    0.8200 c3        1 MOL     -0.052900
     85 C27        -2.5310    3.0830   -0.1260 c         1 MOL      0.443065
     86 O15        -1.6470    3.2000   -0.9070 o         1 MOL     -0.420944
     87 C28        -2.4230    3.8510    2.2560 c3        1 MOL      0.211710
     88 C29        -0.9280    4.1860    2.5660 c3        1 MOL     -0.062530
     89 C30        -3.3710    4.6940    3.0520 c3        1 MOL     -0.323258
     90 C31        -0.5860    3.6110    3.9670 c3        1 MOL     -0.214561
     91 H36        -1.3360    5.5480    0.2730 hn        1 MOL      0.090342
     92 H37        -4.0050    4.1320    0.7520 h1        1 MOL      0.089762
     93 H38        -2.5860    2.7860    2.4320 hc        1 MOL     -0.016610
     94 H39        -0.7950    5.2620    2.5320 hc        1 MOL      0.082675
     95 H40        -0.2850    3.7200    1.8180 hc        1 MOL      0.082675
     96 H41        -3.2040    4.6370    4.1260 hc        1 MOL      0.063944
     97 H42        -3.2790    5.7500    2.7770 hc        1 MOL      0.063944
     98 H43        -4.3520    4.2540    2.8890 hc        1 MOL      0.063944
     99 H44        -1.0730    4.1290    4.7930 hc        1 MOL      0.058991
    100 H45        -0.9080    2.5690    4.0390 hc        1 MOL      0.058991
    101 H46         0.4830    3.7980    4.0870 hc        1 MOL      0.058991
    102 N10        -3.1670    1.8260   -0.1000 n         1 MOL     -0.500793
    103 C32        -2.6190    0.6220   -0.7290 c3        1 MOL     -0.032402
    104 C33        -3.7080   -0.4540   -0.9970 c         1 MOL      0.497204
    105 O16        -3.3520   -1.6210   -1.2060 o         1 MOL     -0.479723
    106 C34        -1.4130    0.1340    0.0090 c3        1 MOL     -0.054437
    107 C35        -0.4050   -0.7140   -0.7290 c         1 MOL      0.660659
    108 O17         0.5830   -1.1780   -0.1030 o         1 MOL     -0.738403
    109 O18        -0.5490   -0.9200   -1.9940 o         1 MOL     -0.738403
    110 H47        -3.9740    1.7070    0.4880 hn        1 MOL      0.267068
    111 H48        -2.3200    0.9270   -1.7290 h1        1 MOL      0.088013
    112 H49        -1.6790   -0.5470    0.8080 hc        1 MOL      0.051038
    113 H50        -0.9810    1.0450    0.4250 hc        1 MOL      0.051038
    114 N11        -4.9660   -0.0040   -0.8930 n         1 MOL     -0.382645
    115 C36        -6.0710   -0.9460   -1.0500 c3        1 MOL      0.036637
    116 C37        -6.0260   -2.0650    0.1090 c         1 MOL      0.422517
    117 O19        -6.0850   -1.7410    1.3090 o         1 MOL     -0.493543
    118 C38        -7.4090   -0.2170   -1.0230 c3        1 MOL     -0.166337
    119 C39        -8.7300   -0.9990   -1.0000 ca        1 MOL     -0.010378
    120 C40        -9.2320   -1.5640   -2.1810 ca        1 MOL     -0.081025
    121 C41        -9.4800   -1.0430    0.1640 ca        1 MOL     -0.081025
    122 C42       -10.3730   -2.3970   -2.1770 ca        1 MOL     -0.206529
    123 C43       -10.5670   -1.9500    0.2400 ca        1 MOL     -0.206529
    124 C44       -10.9710   -2.6860   -0.8860 ca        1 MOL     -0.034340
    125 H51        -5.2130    0.9410   -0.6740 hn        1 MOL      0.246361
    126 H52        -5.9950   -1.3620   -2.0570 h1        1 MOL      0.070371
    127 H53        -7.3980    0.5280   -1.8200 hc        1 MOL      0.083412
    128 H54        -7.4140    0.4460   -0.1600 hc        1 MOL      0.083412
    129 H55        -8.6840   -1.3840   -3.0870 ha        1 MOL      0.105774
    130 H56        -9.2040   -0.4610    1.0320 ha        1 MOL      0.105774
    131 H57       -10.6010   -2.9970   -3.0480 ha        1 MOL      0.127841
    132 H58       -11.2480   -1.9370    1.0850 ha        1 MOL      0.127841
    133 H59       -11.8260   -3.3460   -0.8590 ha        1 MOL      0.083276
    134 N12        -6.0550   -3.3950   -0.2810 n         1 MOL      0.015564
    135 C45        -6.2300   -4.4250    0.6800 c3        1 MOL     -0.037862
    136 C46        -5.0710   -4.5420    1.6480 c         1 MOL      0.418669
    137 O20        -5.2260   -5.0270    2.7700 o         1 MOL     -0.510962
    138 C47        -6.4300   -5.6780   -0.2210 c3        1 MOL     -0.036576
    139 C48        -6.9530   -5.1020   -1.5250 c3        1 MOL     -0.065278
    140 C49        -6.1130   -3.8500   -1.6280 c3        1 MOL     -0.020782
    141 H60        -7.2010   -4.2220    1.1370 h1        1 MOL      0.068410
    142 H61        -5.5110   -6.2320   -0.3720 hc        1 MOL      0.039376
    143 H62        -7.0520   -6.4050    0.3060 hc        1 MOL      0.039376
    144 H63        -6.9500   -5.7880   -2.3800 hc        1 MOL      0.026881
    145 H64        -8.0010   -4.8120   -1.5510 hc        1 MOL      0.026881
    146 H65        -5.1240   -4.1290   -2.0010 h1        1 MOL      0.037079
    147 H66        -6.4790   -3.2010   -2.4110 h1        1 MOL      0.037079
    148 N13        -3.8560   -4.0500    1.2250 n         1 MOL     -0.281525
    149 C50        -2.7330   -4.0130    2.1660 c3        1 MOL     -0.050380
    150 C51        -2.8740   -2.9090    3.2170 c         1 MOL      0.384684
    151 O21        -2.2860   -3.0310    4.3130 o         1 MOL     -0.542118
    152 C52        -1.4480   -3.6850    1.3680 c3        1 MOL      0.036565
    153 C53        -0.9710   -4.8180    0.4650 c3        1 MOL     -0.196915
    154 C54        -0.0080   -4.3720   -0.5550 c         1 MOL      0.776005
    155 O22         1.2140   -4.1740   -0.2280 o         1 MOL     -0.760455
    156 O23        -0.3560   -4.3830   -1.7590 o         1 MOL     -0.760455
    157 H67        -3.8000   -3.5290    0.3600 hn        1 MOL      0.201293
    158 H68        -2.5600   -4.9740    2.6500 h1        1 MOL      0.111457
    159 H69        -0.7090   -3.5070    2.1610 hc        1 MOL      0.055823
    160 H70        -1.6600   -2.7460    0.8630 hc        1 MOL      0.055823
    161 H71        -1.8340   -5.2290   -0.0710 hc        1 MOL      0.027178
    162 H72        -0.4470   -5.5680    1.0440 hc        1 MOL      0.027178
    163 N14        -3.8070   -1.9380    3.0280 n         1 MOL     -0.013825
    164 C55        -4.2040   -0.9280    3.9800 c3        1 MOL     -0.297964
    165 H73        -4.0190    0.0600    3.5580 h1        1 MOL      0.107263
    166 H74        -5.2660   -1.0350    4.2030 h1        1 MOL      0.107263
    167 H75        -3.6260   -1.0450    4.8970 h1        1 MOL      0.107263
    168 H76        -4.3930   -1.9980    2.2090 hn        1 MOL      0.098343
    169 Ca1         1.4960   -2.5130   -2.2690 Ca        1 MOL      1.750040
    170 O24         2.8080   -5.0290   -2.7700 oh        1 MOL     -0.796754
    171 H77         3.4760   -5.2210   -3.4280 ho        1 MOL      0.393645
    172 H78         2.9770   -5.6460   -2.0590 ho        1 MOL      0.393645
    173 O25         2.4430   -2.0830   -4.7340 oh        1 MOL     -0.796754
    174 H79         3.2950   -1.8040   -5.0910 ho        1 MOL      0.393645
    175 H80         1.9170   -2.3010   -5.5070 ho        1 MOL      0.393645
    176 O26        -0.2420   -3.0070   -4.4280 oh        1 MOL     -0.796754
    177 H81        -1.0880   -2.5800   -4.3090 ho        1 MOL      0.393645
    178 H82        -0.2040   -3.2270   -5.3590 ho        1 MOL      0.393645
@<TRIPOS>BOND
     1    1    2 1   
     2    1    4 1   
     3    1    5 1   
     4    1    6 1   
     5    2    3 2   
     6    2    7 1   
     7    7    8 1   
     8    7   15 1   
     9    8    9 1   
    10    8   11 1   
    11    8   16 1   
    12    9   10 2   
    13    9   19 1   
    14   11   12 1   
    15   11   17 1   
    16   11   18 1   
    17   12   13 1   
    18   12   14 1   
    19   19   20 1   
    20   19   24 1   
    21   20   21 1   
    22   20   23 1   
    23   20   25 1   
    24   21   22 2   
    25   21   29 1   
    26   23   26 1   
    27   23   27 1   
    28   23   28 1   
    29   29   30 1   
    30   29   37 1   
    31   30   31 1   
    32   30   33 1   
    33   30   38 1   
    34   31   32 2   
    35   31   41 1   
    36   33   34 1   
    37   33   39 1   
    38   33   40 1   
    39   34   35 1   
    40   34   36 1   
    41   41   42 1   
    42   41   45 1   
    43   42   43 1   
    44   42   46 1   
    45   42   47 1   
    46   43   44 2   
    47   43   48 1   
    48   48   49 1   
    49   48   56 1   
    50   49   50 1   
    51   49   52 1   
    52   49   57 1   
    53   50   51 2   
    54   50   62 1   
    55   52   53 1   
    56   52   58 1   
    57   52   59 1   
    58   53   54 1   
    59   53   55 2   
    60   54   60 1   
    61   54   61 1   
    62   62   63 1   
    63   62   66 1   
    64   63   64 1   
    65   63   67 1   
    66   63   68 1   
    67   64   65 2   
    68   64   69 1   
    69   69   70 1   
    70   69   76 1   
    71   70   71 1   
    72   70   73 1   
    73   70   77 1   
    74   71   72 2   
    75   71   83 1   
    76   73   74 1   
    77   73   75 1   
    78   73   78 1   
    79   74   80 1   
    80   74   81 1   
    81   74   82 1   
    82   75   79 1   
    83   83   84 1   
    84   83   91 1   
    85   84   85 1   
    86   84   87 1   
    87   84   92 1   
    88   85   86 2   
    89   85  102 1   
    90   87   88 1   
    91   87   89 1   
    92   87   93 1   
    93   88   90 1   
    94   88   94 1   
    95   88   95 1   
    96   89   96 1   
    97   89   97 1   
    98   89   98 1   
    99   90   99 1   
   100   90  100 1   
   101   90  101 1   
   102  102  103 1   
   103  102  110 1   
   104  103  104 1   
   105  103  106 1   
   106  103  111 1   
   107  104  105 2   
   108  104  114 1   
   109  106  107 1   
   110  106  112 1   
   111  106  113 1   
   112  107  108 1   
   113  107  109 1   
   114  114  115 1   
   115  114  125 1   
   116  115  116 1   
   117  115  118 1   
   118  115  126 1   
   119  116  117 2   
   120  116  134 1   
   121  118  119 1   
   122  118  127 1   
   123  118  128 1   
   124  119  120 ar  
   125  119  121 ar  
   126  120  122 ar  
   127  120  129 1   
   128  121  123 ar  
   129  121  130 1   
   130  122  124 ar  
   131  122  131 1   
   132  123  124 ar  
   133  123  132 1   
   134  124  133 1   
   135  134  135 1   
   136  134  140 1   
   137  135  136 1   
   138  135  138 1   
   139  135  141 1   
   140  136  137 2   
   141  136  148 1   
   142  138  139 1   
   143  138  142 1   
   144  138  143 1   
   145  139  140 1   
   146  139  144 1   
   147  139  145 1   
   148  140  146 1   
   149  140  147 1   
   150  148  149 1   
   151  148  157 1   
   152  149  150 1   
   153  149  152 1   
   154  149  158 1   
   155  150  151 2   
   156  150  163 1   
   157  152  153 1   
   158  152  159 1   
   159  152  160 1   
   160  153  154 1   
   161  153  161 1   
   162  153  162 1   
   163  154  155 1   
   164  154  156 1   
   165  163  164 1   
   166  163  168 1   
   167  164  165 1   
   168  164  166 1   
   169  164  167 1   
   170  170  171 1   
   171  170  172 1   
   172  173  174 1   
   173  173  175 1   
   174  176  177 1   
   175  176  178 1   
@<TRIPOS>SUBSTRUCTURE
     1 MOL         1 TEMP              0 ****  ****    0 ROOT
