@<TRIPOS>MOLECULE
MOL
  186   183     1     0     0
SMALL
resp


@<TRIPOS>ATOM
      1 C1         12.3850    5.3790   -2.7480 c3        1 MOL     -0.390611
      2 C2         12.0770    4.1110   -1.9020 c         1 MOL      0.605484
      3 O1         12.9900    3.3310   -1.7210 o         1 MOL     -0.541836
      4 H1         11.5150    6.0360   -2.7470 hc        1 MOL      0.103577
      5 H2         13.2370    5.9050   -2.3180 hc        1 MOL      0.103577
      6 H3         12.6170    5.0860   -3.7720 hc        1 MOL      0.103577
      7 N1         10.8730    3.9290   -1.3300 n         1 MOL     -0.044850
      8 C3         10.5100    2.7760   -0.5280 c3        1 MOL     -1.011884
      9 C4          9.0700    2.3080   -0.7280 c         1 MOL      0.970514
     10 O2          8.1650    3.1490   -0.9590 o         1 MOL     -0.708012
     11 C5         10.8010    3.0880    0.9420 c3        1 MOL      0.485438
     12 C6         10.4160    4.4700    1.4580 c         1 MOL      0.492231
     13 O3          9.4820    5.0860    0.9700 o         1 MOL     -0.672505
     14 O4         11.0370    4.8720    2.4830 o         1 MOL     -0.672505
     15 H4         10.1660    4.6340   -1.4680 hn        1 MOL      0.106863
     16 H5         11.1070    1.9380   -0.8760 h1        1 MOL      0.248235
     17 H6         11.8530    2.9110    1.1750 hc        1 MOL     -0.009377
     18 H7         10.4420    2.3340    1.6480 hc        1 MOL     -0.009377
     19 N2          8.9050    0.9600   -0.5560 n         1 MOL     -0.538637
     20 C7          7.6320    0.2440   -0.8320 c3        1 MOL     -0.000037
     21 C8          6.8200    0.0270    0.4840 c         1 MOL      0.625719
     22 O5          7.2600   -0.6760    1.4170 o         1 MOL     -0.540556
     23 C9          7.9900   -1.0380   -1.4660 c3        1 MOL     -0.173403
     24 C10         6.8140   -1.9040   -1.9840 c3        1 MOL      0.166346
     25 C11         7.3620   -2.9440   -3.0080 c3        1 MOL      0.061871
     26 C12         8.0000   -4.2050   -2.4010 c3        1 MOL     -0.121784
     27 N3          7.0720   -5.0340   -1.5600 n4        1 MOL     -0.181454
     28 H8          9.7180    0.4340   -0.2490 hn        1 MOL      0.323491
     29 H9          7.0330    0.7730   -1.5830 h1        1 MOL      0.099737
     30 H10         8.6120   -1.6020   -0.7680 hc        1 MOL      0.064568
     31 H11         8.6360   -0.8040   -2.3130 hc        1 MOL      0.064568
     32 H12         6.1220   -1.3270   -2.5960 hc        1 MOL     -0.026600
     33 H13         6.3210   -2.4160   -1.1600 hc        1 MOL     -0.026600
     34 H14         8.0240   -2.4490   -3.7230 hc        1 MOL      0.009941
     35 H15         6.5350   -3.2790   -3.6370 hc        1 MOL      0.009941
     36 H16         8.8470   -3.8740   -1.8070 hx        1 MOL      0.107901
     37 H17         8.3690   -4.8110   -3.2370 hx        1 MOL      0.107901
     38 H18         6.2670   -5.3960   -2.0350 hn        1 MOL      0.295210
     39 H19         7.4960   -5.9250   -1.3320 hn        1 MOL      0.295210
     40 H20         6.5950   -4.5670   -0.7940 hn        1 MOL      0.295210
     41 N4          5.5600    0.4690    0.4640 n         1 MOL     -0.551531
     42 C13         4.6510    0.5320    1.5700 c3        1 MOL      0.314598
     43 C14         3.1620    0.4360    1.1530 c         1 MOL      0.294763
     44 O6          2.7940    0.9420    0.0630 o         1 MOL     -0.481592
     45 C15         4.9040    1.8760    2.3120 c3        1 MOL      0.231307
     46 C16         5.6630    2.9650    1.5560 c         1 MOL      0.465502
     47 O7          5.1930    3.4920    0.4860 o         1 MOL     -0.735851
     48 O8          6.8600    3.3690    1.9030 o         1 MOL     -0.735851
     49 H21         5.2540    0.8260   -0.4260 hn        1 MOL      0.259524
     50 H22         4.8050   -0.1700    2.3880 h1        1 MOL      0.006822
     51 H23         5.4890    1.7160    3.2250 hc        1 MOL     -0.029846
     52 H24         4.0340    2.3820    2.7370 hc        1 MOL     -0.029846
     53 N5          2.2040   -0.2510    1.8590 n         1 MOL     -0.365591
     54 C17         2.3830   -1.1270    3.0090 c3        1 MOL     -0.004123
     55 C18         3.2520   -2.3690    2.6480 c         1 MOL      0.471564
     56 O9          3.8020   -2.6830    1.5960 o         1 MOL     -0.545898
     57 H25         1.2880   -0.1710    1.4370 hn        1 MOL      0.295740
     58 H26         1.3780   -1.4190    3.3010 h1        1 MOL      0.065676
     59 H27         2.8470   -0.4820    3.7690 h1        1 MOL      0.065676
     60 N6          3.2680   -3.2180    3.6450 n         1 MOL     -0.218722
     61 C19         3.7320   -4.6130    3.5320 c3        1 MOL     -0.001396
     62 C20         2.8780   -5.5090    2.5770 c         1 MOL      0.446772
     63 O10         3.5140   -6.3800    1.9080 o         1 MOL     -0.579929
     64 C21         3.9650   -5.2590    4.9190 c3        1 MOL     -0.414070
     65 C22         3.0020   -4.8570    6.0050 c         1 MOL      0.789894
     66 O11         3.4310   -5.0600    7.1460 o         1 MOL     -0.712327
     67 O12         1.8620   -4.3760    5.7950 o         1 MOL     -0.712327
     68 H28         2.7330   -2.9440    4.4560 hn        1 MOL      0.170470
     69 H29         4.7150   -4.6820    3.0800 h1        1 MOL      0.073480
     70 H30         4.9510   -4.9430    5.2710 hc        1 MOL      0.128103
     71 H31         3.8810   -6.3330    4.7750 hc        1 MOL      0.128103
     72 N7          1.5810   -5.3330    2.4370 n         1 MOL     -0.203464
     73 C23         0.8070   -6.1760    1.5670 c3        1 MOL      0.012790
     74 C24         0.5380   -5.6130    0.0880 c         1 MOL      0.356067
     75 O13        -0.2450   -6.2310   -0.6830 o         1 MOL     -0.546429
     76 H32         1.0940   -4.6660    3.0150 hn        1 MOL      0.198316
     77 H33        -0.1380   -6.3820    2.0690 h1        1 MOL      0.076962
     78 H34         1.2420   -7.1690    1.6160 h1        1 MOL      0.076962
     79 N8          1.0130   -4.4400   -0.2950 n         1 MOL     -0.119995
     80 C25         0.8190   -3.7310   -1.6440 c3        1 MOL      0.127614
     81 C26         0.2990   -2.2840   -1.4760 c         1 MOL      0.013356
     82 O14         0.4820   -1.7490   -0.3210 o         1 MOL     -0.392341
     83 C27         2.0650   -3.7770   -2.5140 c3        1 MOL      0.333127
     84 C28         3.3890   -3.3960   -1.8280 c3        1 MOL     -0.506604
     85 O15         2.2480   -5.0350   -3.0190 oh        1 MOL     -0.613778
     86 H35         1.5420   -3.9400    0.4020 hn        1 MOL      0.123186
     87 H36         0.0190   -4.2890   -2.1420 h1        1 MOL      0.034424
     88 H37         1.8010   -3.1540   -3.3740 h1        1 MOL     -0.010654
     89 H38         1.5400   -5.1800   -3.6580 ho        1 MOL      0.388734
     90 H39         4.1380   -3.0730   -2.5570 hc        1 MOL      0.137729
     91 H40         3.3010   -2.5820   -1.1090 hc        1 MOL      0.137729
     92 H41         3.7240   -4.2640   -1.2610 hc        1 MOL      0.137729
     93 N9         -0.2320   -1.6630   -2.4870 n         1 MOL      0.039488
     94 C29        -0.6380   -0.2680   -2.4340 c3        1 MOL     -0.026669
     95 C30        -2.1350   -0.0700   -1.9630 c         1 MOL      0.528692
     96 O16        -2.5720    0.9640   -1.3710 o         1 MOL     -0.523819
     97 C31        -0.3530    0.5010   -3.7710 c3        1 MOL      0.059279
     98 C32         1.0290    0.1560   -4.3840 c3        1 MOL      0.000201
     99 C33        -0.4970    2.0230   -3.6520 c3        1 MOL     -0.235100
    100 C34         2.2190    0.3260   -3.4290 c3        1 MOL     -0.189106
    101 H42        -0.2370   -2.1070   -3.3890 hn        1 MOL      0.206310
    102 H43        -0.0500    0.3200   -1.7240 h1        1 MOL      0.058996
    103 H44        -1.0560    0.0800   -4.4820 hc        1 MOL     -0.002728
    104 H45         1.2100    0.7260   -5.2980 hc        1 MOL     -0.015487
    105 H46         0.9060   -0.9080   -4.5970 hc        1 MOL     -0.015487
    106 H47        -0.2720    2.5630   -4.5730 hc        1 MOL      0.080580
    107 H48        -1.4970    2.4270   -3.4870 hc        1 MOL      0.080580
    108 H49         0.1510    2.4960   -2.9080 hc        1 MOL      0.080580
    109 H50         3.0780   -0.2180   -3.8100 hc        1 MOL      0.064315
    110 H51         2.3600    1.3980   -3.2640 hc        1 MOL      0.064315
    111 H52         2.0260   -0.2110   -2.5020 hc        1 MOL      0.064315
    112 N10        -2.8410   -1.1860   -2.0500 n         1 MOL     -0.542276
    113 C35        -4.1250   -1.4670   -1.3400 c3        1 MOL      0.302594
    114 C36        -5.3740   -1.8100   -2.2180 c         1 MOL      0.556721
    115 O17        -5.3210   -2.4260   -3.3240 o         1 MOL     -0.550645
    116 C37        -3.8020   -2.4860   -0.1870 c3        1 MOL      0.249278
    117 C38        -4.9220   -3.3810    0.3340 c3        1 MOL     -0.469874
    118 O18        -2.7540   -3.3260   -0.5800 oh        1 MOL     -0.545709
    119 H53        -2.4130   -1.9860   -2.4980 hn        1 MOL      0.236267
    120 H54        -4.4580   -0.5240   -0.8990 h1        1 MOL     -0.019776
    121 H55        -3.3230   -1.9680    0.6420 h1        1 MOL      0.035989
    122 H56        -2.3910   -3.6020    0.2650 ho        1 MOL      0.392329
    123 H57        -4.5810   -4.0500    1.1260 hc        1 MOL      0.121156
    124 H58        -5.6680   -2.7810    0.8650 hc        1 MOL      0.121156
    125 H59        -5.4500   -4.0650   -0.3330 hc        1 MOL      0.121156
    126 N11        -6.5520   -1.5060   -1.7280 n         1 MOL     -0.543682
    127 C39        -7.8790   -1.7340   -2.3510 c3        1 MOL      0.084310
    128 C40        -8.9410   -0.6410   -2.1990 c         1 MOL      0.546305
    129 O19        -9.5130   -0.2250   -3.2580 o         1 MOL     -0.525582
    130 C41        -8.4230   -3.0510   -1.7030 c3        1 MOL      0.279939
    131 C42        -9.6050   -3.6760   -2.4220 c3        1 MOL     -0.364881
    132 O20        -8.6920   -2.9950   -0.3620 oh        1 MOL     -0.634735
    133 H60        -6.5730   -1.1700   -0.7820 hn        1 MOL      0.288533
    134 H61        -7.8730   -1.9420   -3.4220 h1        1 MOL      0.101711
    135 H62        -7.5890   -3.7490   -1.7590 h1        1 MOL      0.020545
    136 H63        -8.6550   -3.9270   -0.1750 ho        1 MOL      0.420776
    137 H64        -9.8490   -4.6830   -2.0870 hc        1 MOL      0.093825
    138 H65       -10.4450   -2.9850   -2.5190 hc        1 MOL      0.093825
    139 H66        -9.2840   -3.7480   -3.4560 hc        1 MOL      0.093825
    140 N12        -9.1610   -0.1040   -0.9600 n         1 MOL     -0.407018
    141 C43       -10.1770    0.8010   -0.5560 c3        1 MOL     -0.145984
    142 C44        -9.8520    1.6520    0.6580 c         1 MOL      0.798970
    143 O21        -9.5980    1.0990    1.7240 o         1 MOL     -0.554990
    144 C45       -11.4830    0.0320   -0.3150 c3        1 MOL     -0.270721
    145 C46       -12.6710    0.8220   -0.0660 c3        1 MOL      0.111258
    146 C47       -13.8150   -0.1560    0.2430 c3        1 MOL      0.092616
    147 C48       -15.0630    0.5700    0.8110 c3        1 MOL      0.002356
    148 N13       -16.2110   -0.3910    0.7920 n4        1 MOL     -0.293428
    149 H67        -8.5450   -0.3810   -0.2030 hn        1 MOL      0.289620
    150 H68       -10.3690    1.4690   -1.4030 h1        1 MOL      0.105369
    151 H69       -11.3460   -0.7460    0.4420 hc        1 MOL      0.113625
    152 H70       -11.7120   -0.5180   -1.2190 hc        1 MOL      0.113625
    153 H71       -12.9920    1.3960   -0.9290 hc        1 MOL     -0.002467
    154 H72       -12.4930    1.5170    0.7590 hc        1 MOL     -0.002467
    155 H73       -13.3360   -0.8220    0.9630 hc        1 MOL     -0.013880
    156 H74       -14.0500   -0.7870   -0.6210 hc        1 MOL     -0.013880
    157 H75       -15.1040    1.3390    0.0280 hx        1 MOL      0.076051
    158 H76       -14.8030    1.0210    1.7650 hx        1 MOL      0.076051
    159 H77       -15.9710   -1.1880    1.3680 hn        1 MOL      0.255965
    160 H78       -16.9720    0.0590    1.2720 hn        1 MOL      0.255965
    161 H79       -16.4510   -0.6410   -0.1600 hn        1 MOL      0.255965
    162 N14        -9.7740    2.9560    0.5790 n         1 MOL     -0.690448
    163 C49        -9.1830    3.8340    1.6530 c3        1 MOL      0.344796
    164 C50        -7.7030    3.5450    1.9200 c         1 MOL      0.356884
    165 O22        -7.4640    2.9850    2.9890 o         1 MOL     -0.517694
    166 C51        -9.4800    5.3020    1.4490 c3        1 MOL     -0.047980
    167 C52        -9.1350    6.3140    2.5310 c3        1 MOL     -0.228123
    168 C53        -9.1130    7.7310    1.9470 c         1 MOL      0.709559
    169 O23        -8.7950    8.7450    2.6330 o         1 MOL     -0.642935
    170 O24        -9.4090    7.9370    0.7200 o         1 MOL     -0.642935
    171 H80       -10.1220    3.4420   -0.2330 hn        1 MOL      0.303134
    172 H81        -9.6230    3.5640    2.6200 h1        1 MOL      0.007020
    173 H82       -10.5340    5.4280    1.2200 hc        1 MOL      0.015447
    174 H83        -9.1380    5.5730    0.4490 hc        1 MOL      0.015447
    175 H84        -8.1830    6.0730    2.9900 hc        1 MOL      0.058107
    176 H85        -9.8880    6.2870    3.3190 hc        1 MOL      0.058107
    177 N15        -6.7130    3.8910    1.0710 n         1 MOL     -0.316760
    178 C54        -6.7560    4.4030   -0.2870 c3        1 MOL     -0.067564
    179 H86        -7.6360    5.0360   -0.4080 h1        1 MOL      0.064341
    180 H87        -5.8590    4.9900   -0.4830 h1        1 MOL      0.064341
    181 H88        -6.8090    3.5710   -0.9880 h1        1 MOL      0.064341
    182 H89        -5.8030    3.8320    1.5110 hn        1 MOL      0.273338
    183 Ca1         7.0590    5.3680    0.2740 Ca        1 MOL      1.749363
    184 O25         5.3530    5.1640   -1.8230 oh        1 MOL     -0.827057
    185 H90         5.8000    5.0930   -2.6700 ho        1 MOL      0.422353
    186 H91         4.6500    4.5170   -1.8770 ho        1 MOL      0.422353
@<TRIPOS>BOND
     1    1    2 1   
     2    1    4 1   
     3    1    5 1   
     4    1    6 1   
     5    2    3 2   
     6    2    7 1   
     7    7    8 1   
     8    7   15 1   
     9    8    9 1   
    10    8   11 1   
    11    8   16 1   
    12    9   10 2   
    13    9   19 1   
    14   11   12 1   
    15   11   17 1   
    16   11   18 1   
    17   12   13 1   
    18   12   14 1   
    19   19   20 1   
    20   19   28 1   
    21   20   21 1   
    22   20   23 1   
    23   20   29 1   
    24   21   22 2   
    25   21   41 1   
    26   23   24 1   
    27   23   30 1   
    28   23   31 1   
    29   24   25 1   
    30   24   32 1   
    31   24   33 1   
    32   25   26 1   
    33   25   34 1   
    34   25   35 1   
    35   26   27 1   
    36   26   36 1   
    37   26   37 1   
    38   27   38 1   
    39   27   39 1   
    40   27   40 1   
    41   41   42 1   
    42   41   49 1   
    43   42   43 1   
    44   42   45 1   
    45   42   50 1   
    46   43   44 2   
    47   43   53 1   
    48   45   46 1   
    49   45   51 1   
    50   45   52 1   
    51   46   47 1   
    52   46   48 1   
    53   53   54 1   
    54   53   57 1   
    55   54   55 1   
    56   54   58 1   
    57   54   59 1   
    58   55   56 2   
    59   55   60 1   
    60   60   61 1   
    61   60   68 1   
    62   61   62 1   
    63   61   64 1   
    64   61   69 1   
    65   62   63 2   
    66   62   72 1   
    67   64   65 1   
    68   64   70 1   
    69   64   71 1   
    70   65   66 1   
    71   65   67 1   
    72   72   73 1   
    73   72   76 1   
    74   73   74 1   
    75   73   77 1   
    76   73   78 1   
    77   74   75 2   
    78   74   79 1   
    79   79   80 1   
    80   79   86 1   
    81   80   81 1   
    82   80   83 1   
    83   80   87 1   
    84   81   82 2   
    85   81   93 1   
    86   83   84 1   
    87   83   85 1   
    88   83   88 1   
    89   84   90 1   
    90   84   91 1   
    91   84   92 1   
    92   85   89 1   
    93   93   94 1   
    94   93  101 1   
    95   94   95 1   
    96   94   97 1   
    97   94  102 1   
    98   95   96 2   
    99   95  112 1   
   100   97   98 1   
   101   97   99 1   
   102   97  103 1   
   103   98  100 1   
   104   98  104 1   
   105   98  105 1   
   106   99  106 1   
   107   99  107 1   
   108   99  108 1   
   109  100  109 1   
   110  100  110 1   
   111  100  111 1   
   112  112  113 1   
   113  112  119 1   
   114  113  114 1   
   115  113  116 1   
   116  113  120 1   
   117  114  115 2   
   118  114  126 1   
   119  116  117 1   
   120  116  118 1   
   121  116  121 1   
   122  117  123 1   
   123  117  124 1   
   124  117  125 1   
   125  118  122 1   
   126  126  127 1   
   127  126  133 1   
   128  127  128 1   
   129  127  130 1   
   130  127  134 1   
   131  128  129 2   
   132  128  140 1   
   133  130  131 1   
   134  130  132 1   
   135  130  135 1   
   136  131  137 1   
   137  131  138 1   
   138  131  139 1   
   139  132  136 1   
   140  140  141 1   
   141  140  149 1   
   142  141  142 1   
   143  141  144 1   
   144  141  150 1   
   145  142  143 2   
   146  142  162 1   
   147  144  145 1   
   148  144  151 1   
   149  144  152 1   
   150  145  146 1   
   151  145  153 1   
   152  145  154 1   
   153  146  147 1   
   154  146  155 1   
   155  146  156 1   
   156  147  148 1   
   157  147  157 1   
   158  147  158 1   
   159  148  159 1   
   160  148  160 1   
   161  148  161 1   
   162  162  163 1   
   163  162  171 1   
   164  163  164 1   
   165  163  166 1   
   166  163  172 1   
   167  164  165 2   
   168  164  177 1   
   169  166  167 1   
   170  166  173 1   
   171  166  174 1   
   172  167  168 1   
   173  167  175 1   
   174  167  176 1   
   175  168  169 1   
   176  168  170 1   
   177  177  178 1   
   178  177  182 1   
   179  178  179 1   
   180  178  180 1   
   181  178  181 1   
   182  184  185 1   
   183  184  186 1   
@<TRIPOS>SUBSTRUCTURE
     1 MOL         1 TEMP              0 ****  ****    0 ROOT
