@<TRIPOS>MOLECULE
MOL
  178   175     1     0     0
SMALL
resp


@<TRIPOS>ATOM
      1 C1         -3.1720   -7.5270   -1.8060 c3        1 MOL     -0.414844
      2 C2         -4.3650   -7.0100   -1.0070 c         1 MOL      0.687479
      3 O1         -4.5430   -7.3360    0.1800 o         1 MOL     -0.602210
      4 H1         -3.4630   -8.4240   -2.3520 hc        1 MOL      0.101508
      5 H2         -2.8480   -6.7620   -2.5120 hc        1 MOL      0.101508
      6 H3         -2.3550   -7.7650   -1.1260 hc        1 MOL      0.101508
      7 N1         -5.3080   -6.2900   -1.5810 n         1 MOL     -0.470937
      8 C3         -6.5130   -5.7150   -0.9310 c3        1 MOL      0.040864
      9 C4         -6.2030   -4.3360   -0.2160 c         1 MOL      0.590796
     10 O2         -6.0330   -3.3150   -0.8880 o         1 MOL     -0.519337
     11 C5         -7.5810   -5.4550   -2.0060 c3        1 MOL     -0.194059
     12 C6         -8.9120   -4.8720   -1.5150 c         1 MOL      0.711186
     13 O3         -9.3860   -3.8470   -2.0530 o         1 MOL     -0.733209
     14 O4         -9.4620   -5.4830   -0.5280 o         1 MOL     -0.733209
     15 H4         -5.1080   -5.9210   -2.4990 hn        1 MOL      0.261688
     16 H5         -6.9510   -6.4390   -0.2340 h1        1 MOL      0.068549
     17 H6         -7.7620   -6.3660   -2.5790 hc        1 MOL      0.018596
     18 H7         -7.0930   -4.7820   -2.6990 hc        1 MOL      0.018596
     19 N2         -6.1900   -4.3150    1.0980 n         1 MOL     -0.655655
     20 C7         -5.9750   -3.1040    1.9250 c3        1 MOL      0.652286
     21 C8         -4.4800   -2.9550    2.3510 c         1 MOL      0.387294
     22 O5         -3.6920   -3.8390    2.2930 o         1 MOL     -0.503155
     23 C9         -7.0670   -3.0050    2.9670 c3        1 MOL     -0.506303
     24 H8         -6.5910   -5.1270    1.5540 hn        1 MOL      0.305235
     25 H9         -6.2260   -2.3310    1.1940 h1        1 MOL     -0.015548
     26 H10        -8.0460   -2.8070    2.5310 hc        1 MOL      0.115696
     27 H11        -7.0100   -3.9650    3.4780 hc        1 MOL      0.115696
     28 H12        -6.8440   -2.1420    3.5940 hc        1 MOL      0.115696
     29 N3         -4.1310   -1.7750    2.9230 n         1 MOL     -0.499688
     30 C10        -4.7010   -0.4070    2.8850 c3        1 MOL     -0.017537
     31 C11        -4.3950    0.3580    1.5890 c         1 MOL      0.581637
     32 O6         -3.2810    0.3900    1.0230 o         1 MOL     -0.527088
     33 C12        -4.2850    0.3970    4.1530 c3        1 MOL     -0.237727
     34 C13        -2.8650    0.2280    4.6440 c         1 MOL      0.679090
     35 O7         -2.7530   -0.5870    5.6390 o         1 MOL     -0.674319
     36 O8         -1.9550    0.9100    4.0910 o         1 MOL     -0.674319
     37 H13        -3.2640   -1.8600    3.4130 hn        1 MOL      0.378785
     38 H14        -5.7850   -0.5360    2.8370 h1        1 MOL      0.043628
     39 H15        -4.9230   -0.0010    4.9450 hc        1 MOL      0.050889
     40 H16        -4.5640    1.4400    4.0390 hc        1 MOL      0.050889
     41 N4         -5.3120    1.2260    1.2050 n         1 MOL     -0.586773
     42 C14        -5.1880    2.1240   -0.0280 c3        1 MOL      0.135556
     43 C15        -4.6530    1.4340   -1.2150 c         1 MOL      0.624457
     44 O9         -4.6980    0.2090   -1.4000 o         1 MOL     -0.498419
     45 H17        -6.2120    1.3740    1.6450 hn        1 MOL      0.330322
     46 H18        -4.4790    2.9480    0.1080 h1        1 MOL      0.035061
     47 H19        -6.1370    2.5940   -0.2770 h1        1 MOL      0.035061
     48 N5         -4.0970    2.1770   -2.2040 n         1 MOL     -0.514525
     49 C16        -4.3740    3.5640   -2.4050 c3        1 MOL      0.163658
     50 C17        -3.0780    4.4650   -2.3930 c         1 MOL      0.688715
     51 O10        -2.0130    4.0220   -2.3540 o         1 MOL     -0.529199
     52 C18        -5.1680    3.7180   -3.7350 c3        1 MOL     -0.096102
     53 C19        -6.5790    3.1170   -3.6990 c         1 MOL      0.611059
     54 N6         -7.2350    3.1280   -4.8040 n         1 MOL     -0.760380
     55 O11        -7.0970    2.5890   -2.6840 o         1 MOL     -0.522008
     56 H20        -3.6600    1.6900   -2.9720 hn        1 MOL      0.273217
     57 H21        -4.9810    3.8920   -1.5600 h1        1 MOL     -0.065417
     58 H22        -4.5280    3.3700   -4.5550 hc        1 MOL      0.023694
     59 H23        -5.3690    4.7530   -3.9980 hc        1 MOL      0.023694
     60 H24        -6.9520    3.5290   -5.6900 hn        1 MOL      0.368701
     61 H25        -8.1270    2.6610   -4.6830 hn        1 MOL      0.368701
     62 N7         -3.3000    5.8140   -2.3710 n         1 MOL     -0.693121
     63 C20        -2.2920    6.8320   -2.6410 c3        1 MOL     -0.098856
     64 C21        -1.2670    7.0150   -1.5260 c         1 MOL      0.463636
     65 O12        -0.7040    8.1060   -1.4870 o         1 MOL     -0.551376
     66 H26        -4.2250    6.2250   -2.4160 hn        1 MOL      0.366207
     67 H27        -2.8330    7.7730   -2.6780 h1        1 MOL      0.121649
     68 H28        -1.8420    6.7720   -3.6370 h1        1 MOL      0.121649
     69 N8         -0.9980    6.0580   -0.6400 n         1 MOL     -0.197898
     70 C22         0.0110    6.1780    0.4320 c3        1 MOL     -0.357631
     71 C23         0.7410    4.8960    0.5980 c         1 MOL      0.899991
     72 O13         0.2490    3.9540    1.2430 o         1 MOL     -0.704276
     73 C24        -0.6210    6.7080    1.7530 c3        1 MOL      0.451790
     74 C25        -0.6980    8.2090    1.8260 c3        1 MOL     -0.457064
     75 O14        -1.8610    6.2170    1.9940 oh        1 MOL     -0.675160
     76 H29        -1.5910    5.2470   -0.6060 hn        1 MOL      0.278907
     77 H30         0.7730    6.8880    0.1000 h1        1 MOL      0.126583
     78 H31         0.1010    6.3100    2.4680 h1        1 MOL      0.017168
     79 H32        -2.4510    6.9710    2.0750 ho        1 MOL      0.414448
     80 H33        -0.7930    8.6420    2.8230 hc        1 MOL      0.122907
     81 H34         0.1860    8.6510    1.3800 hc        1 MOL      0.122907
     82 H35        -1.5150    8.4130    1.1360 hc        1 MOL      0.122907
     83 N9          1.8500    4.7440   -0.0870 n         1 MOL     -0.628826
     84 C26         2.4920    3.4410   -0.3150 c3        1 MOL      0.004402
     85 C27         3.5070    3.0670    0.7540 c         1 MOL      0.631764
     86 O15         4.3950    3.8620    1.0680 o         1 MOL     -0.602328
     87 C28         3.0560    3.4470   -1.7520 c3        1 MOL     -0.053211
     88 C29         3.8490    2.1780   -2.1490 c3        1 MOL      0.345683
     89 C30         1.9440    3.5730   -2.8440 c3        1 MOL     -0.052583
     90 C31         4.6790    2.2910   -3.4540 c3        1 MOL     -0.256999
     91 H36         2.3050    5.5420   -0.5130 hn        1 MOL      0.341978
     92 H37         1.7110    2.6990   -0.1970 h1        1 MOL      0.041328
     93 H38         3.6990    4.3260   -1.8180 hc        1 MOL      0.033135
     94 H39         3.1550    1.3480   -2.1480 hc        1 MOL     -0.123588
     95 H40         4.5140    1.9050   -1.3250 hc        1 MOL     -0.123588
     96 H41         1.2100    4.3240   -2.5450 hc        1 MOL      0.011432
     97 H42         2.2550    3.8550   -3.8430 hc        1 MOL      0.011432
     98 H43         1.3570    2.6620   -2.8940 hc        1 MOL      0.011432
     99 H44         5.5020    2.9800   -3.2400 hc        1 MOL      0.047908
    100 H45         5.0600    1.3230   -3.7630 hc        1 MOL      0.047908
    101 H46         4.0950    2.5590   -4.3340 hc        1 MOL      0.047908
    102 N10         3.4390    1.9280    1.4730 n         1 MOL     -0.214272
    103 C32         4.2370    1.5170    2.5530 c3        1 MOL     -0.203952
    104 C33         5.4970    0.7320    2.1130 c         1 MOL      0.484775
    105 O16         6.5220    0.7050    2.8290 o         1 MOL     -0.580498
    106 C34         3.4550    0.6880    3.6070 c3        1 MOL      0.088196
    107 C35         1.9870    0.7780    3.7440 c         1 MOL      0.595372
    108 O17         1.3810   -0.2450    4.1910 o         1 MOL     -0.691476
    109 O18         1.2850    1.7420    3.3670 o         1 MOL     -0.691476
    110 H47         2.8360    1.1590    1.2120 hn        1 MOL     -0.008621
    111 H48         4.6220    2.3790    3.0900 h1        1 MOL      0.145117
    112 H49         3.8690    1.0330    4.5540 hc        1 MOL      0.010972
    113 H50         3.6810   -0.3760    3.5310 hc        1 MOL      0.010972
    114 N11         5.4720   -0.1180    1.0960 n         1 MOL     -0.439847
    115 C36         6.6260   -0.9410    0.6800 c3        1 MOL      0.182174
    116 C37         6.0590   -2.2210    0.1210 c         1 MOL      0.112741
    117 O19         6.1170   -2.3550   -1.0800 o         1 MOL     -0.350111
    118 C38         7.4090   -0.1120   -0.4350 c3        1 MOL     -0.333052
    119 C39         8.6850   -0.8430   -0.8440 ca        1 MOL      0.153859
    120 C40         9.3620   -1.5780    0.1470 ca        1 MOL     -0.176440
    121 C41         9.2500   -0.5950   -2.1350 ca        1 MOL     -0.176440
    122 C42        10.6910   -2.0400   -0.2040 ca        1 MOL     -0.097798
    123 C43        10.5120   -1.1360   -2.4380 ca        1 MOL     -0.097798
    124 C44        11.2830   -1.8250   -1.4530 ca        1 MOL     -0.165796
    125 H51         4.6630   -0.2420    0.5080 hn        1 MOL      0.467488
    126 H52         7.2630   -1.1730    1.5350 h1        1 MOL      0.083858
    127 H53         7.6430    0.8840   -0.0560 hc        1 MOL      0.132032
    128 H54         6.6950   -0.0270   -1.2530 hc        1 MOL      0.132032
    129 H55         9.1040   -1.7720    1.1800 ha        1 MOL      0.133314
    130 H56         8.7580   -0.0130   -2.8910 ha        1 MOL      0.133314
    131 H57        11.1790   -2.6600    0.5360 ha        1 MOL      0.093626
    132 H58        10.9080   -0.7960   -3.3810 ha        1 MOL      0.093626
    133 H59        12.2890   -2.1390   -1.6870 ha        1 MOL      0.111241
    134 N12         5.5160   -3.1280    0.9150 n         1 MOL      0.064386
    135 C45         5.1130   -4.4910    0.4410 c3        1 MOL     -0.020290
    136 C46         4.1690   -4.5860   -0.7900 c         1 MOL      0.260523
    137 O20         4.1010   -5.6000   -1.5280 o         1 MOL     -0.466143
    138 C47         4.4960   -5.1110    1.6710 c3        1 MOL     -0.130520
    139 C48         5.1950   -4.4220    2.8480 c3        1 MOL     -0.073423
    140 C49         5.4700   -3.0180    2.3640 c3        1 MOL     -0.051181
    141 H60         5.9860   -5.0440    0.1060 h1        1 MOL      0.066430
    142 H61         3.4790   -4.7540    1.7850 hc        1 MOL      0.093642
    143 H62         4.4940   -6.2020    1.7400 hc        1 MOL      0.093642
    144 H63         4.5660   -4.4260    3.7360 hc        1 MOL      0.033818
    145 H64         6.1640   -4.8780    3.0610 hc        1 MOL      0.033818
    146 H65         4.6230   -2.3880    2.6420 h1        1 MOL      0.074711
    147 H66         6.4010   -2.6310    2.7960 h1        1 MOL      0.074711
    148 N13         3.4710   -3.4460   -0.9980 n         1 MOL      0.035363
    149 C50         2.6500   -3.2060   -2.1990 c3        1 MOL     -0.329595
    150 C51         3.5240   -3.3280   -3.4340 c         1 MOL      0.543938
    151 O21         3.1680   -3.9340   -4.4150 o         1 MOL     -0.565306
    152 C52         2.0660   -1.7880   -2.1610 c3        1 MOL      0.280752
    153 C53         0.9530   -1.5820   -1.0570 c3        1 MOL     -0.054589
    154 C54         1.5920   -0.7970    0.1000 c         1 MOL      0.342428
    155 O22         1.1110    0.3670    0.2590 o         1 MOL     -0.454685
    156 O23         2.5410   -1.1850    0.8340 o         1 MOL     -0.454685
    157 H67         3.4520   -2.7050   -0.3150 hn        1 MOL     -0.008496
    158 H68         1.8400   -3.9350   -2.1890 h1        1 MOL      0.149436
    159 H69         1.6220   -1.5100   -3.1130 hc        1 MOL     -0.055658
    160 H70         2.9320   -1.1220   -2.0340 hc        1 MOL     -0.055658
    161 H71         0.5220   -2.5370   -0.7610 hc        1 MOL      0.010721
    162 H72         0.0980   -1.0240   -1.4390 hc        1 MOL      0.010721
    163 N14         4.7510   -2.8440   -3.4420 n         1 MOL     -0.137368
    164 C55         5.6650   -2.9210   -4.5590 c3        1 MOL     -0.341266
    165 H73         5.6840   -3.9400   -4.9440 h1        1 MOL      0.114728
    166 H74         5.3340   -2.2430   -5.3470 h1        1 MOL      0.114728
    167 H75         6.6650   -2.6380   -4.2320 h1        1 MOL      0.114728
    168 H76         5.1800   -2.5920   -2.5660 hn        1 MOL      0.155084
    169 Ca1        -0.6730    1.3170    1.8800 Ca        1 MOL      1.691794
    170 O24        -2.3790    3.2550    2.3920 oh        1 MOL     -0.841728
    171 H77        -2.0340    4.0730    2.0180 ho        1 MOL      0.414538
    172 H78        -2.8320    3.5340    3.1910 ho        1 MOL      0.414538
    173 O25        -0.9350   -1.3430    2.0010 oh        1 MOL     -0.841728
    174 H79        -1.4230   -1.9580    1.4450 ho        1 MOL      0.414538
    175 H80        -0.2160   -1.8660    2.3700 ho        1 MOL      0.414538
    176 O26        -1.1120    1.9260   -0.8400 oh        1 MOL     -0.841728
    177 H81        -0.5160    1.4040   -1.3840 ho        1 MOL      0.414538
    178 H82        -1.4490    2.5990   -1.4380 ho        1 MOL      0.414538
@<TRIPOS>BOND
     1    1    2 1   
     2    1    4 1   
     3    1    5 1   
     4    1    6 1   
     5    2    3 2   
     6    2    7 1   
     7    7    8 1   
     8    7   15 1   
     9    8    9 1   
    10    8   11 1   
    11    8   16 1   
    12    9   10 2   
    13    9   19 1   
    14   11   12 1   
    15   11   17 1   
    16   11   18 1   
    17   12   13 1   
    18   12   14 1   
    19   19   20 1   
    20   19   24 1   
    21   20   21 1   
    22   20   23 1   
    23   20   25 1   
    24   21   22 2   
    25   21   29 1   
    26   23   26 1   
    27   23   27 1   
    28   23   28 1   
    29   29   30 1   
    30   29   37 1   
    31   30   31 1   
    32   30   33 1   
    33   30   38 1   
    34   31   32 2   
    35   31   41 1   
    36   33   34 1   
    37   33   39 1   
    38   33   40 1   
    39   34   35 1   
    40   34   36 1   
    41   41   42 1   
    42   41   45 1   
    43   42   43 1   
    44   42   46 1   
    45   42   47 1   
    46   43   44 2   
    47   43   48 1   
    48   48   49 1   
    49   48   56 1   
    50   49   50 1   
    51   49   52 1   
    52   49   57 1   
    53   50   51 2   
    54   50   62 1   
    55   52   53 1   
    56   52   58 1   
    57   52   59 1   
    58   53   54 1   
    59   53   55 2   
    60   54   60 1   
    61   54   61 1   
    62   62   63 1   
    63   62   66 1   
    64   63   64 1   
    65   63   67 1   
    66   63   68 1   
    67   64   65 2   
    68   64   69 1   
    69   69   70 1   
    70   69   76 1   
    71   70   71 1   
    72   70   73 1   
    73   70   77 1   
    74   71   72 2   
    75   71   83 1   
    76   73   74 1   
    77   73   75 1   
    78   73   78 1   
    79   74   80 1   
    80   74   81 1   
    81   74   82 1   
    82   75   79 1   
    83   83   84 1   
    84   83   91 1   
    85   84   85 1   
    86   84   87 1   
    87   84   92 1   
    88   85   86 2   
    89   85  102 1   
    90   87   88 1   
    91   87   89 1   
    92   87   93 1   
    93   88   90 1   
    94   88   94 1   
    95   88   95 1   
    96   89   96 1   
    97   89   97 1   
    98   89   98 1   
    99   90   99 1   
   100   90  100 1   
   101   90  101 1   
   102  102  103 1   
   103  102  110 1   
   104  103  104 1   
   105  103  106 1   
   106  103  111 1   
   107  104  105 2   
   108  104  114 1   
   109  106  107 1   
   110  106  112 1   
   111  106  113 1   
   112  107  108 1   
   113  107  109 1   
   114  114  115 1   
   115  114  125 1   
   116  115  116 1   
   117  115  118 1   
   118  115  126 1   
   119  116  117 2   
   120  116  134 1   
   121  118  119 1   
   122  118  127 1   
   123  118  128 1   
   124  119  120 ar  
   125  119  121 ar  
   126  120  122 ar  
   127  120  129 1   
   128  121  123 ar  
   129  121  130 1   
   130  122  124 ar  
   131  122  131 1   
   132  123  124 ar  
   133  123  132 1   
   134  124  133 1   
   135  134  135 1   
   136  134  140 1   
   137  135  136 1   
   138  135  138 1   
   139  135  141 1   
   140  136  137 2   
   141  136  148 1   
   142  138  139 1   
   143  138  142 1   
   144  138  143 1   
   145  139  140 1   
   146  139  144 1   
   147  139  145 1   
   148  140  146 1   
   149  140  147 1   
   150  148  149 1   
   151  148  157 1   
   152  149  150 1   
   153  149  152 1   
   154  149  158 1   
   155  150  151 2   
   156  150  163 1   
   157  152  153 1   
   158  152  159 1   
   159  152  160 1   
   160  153  154 1   
   161  153  161 1   
   162  153  162 1   
   163  154  155 1   
   164  154  156 1   
   165  163  164 1   
   166  163  168 1   
   167  164  165 1   
   168  164  166 1   
   169  164  167 1   
   170  170  171 1   
   171  170  172 1   
   172  173  174 1   
   173  173  175 1   
   174  176  177 1   
   175  176  178 1   
@<TRIPOS>SUBSTRUCTURE
     1 MOL         1 TEMP              0 ****  ****    0 ROOT
