@<TRIPOS>MOLECULE
MOL
  185   180     1     0     0
SMALL
resp


@<TRIPOS>ATOM
      1 C1         -4.9910   -1.3160   -5.5140 c3        1 MOL     -0.418384
      2 C2         -4.0600   -1.2840   -4.3030 c         1 MOL      0.550655
      3 O1         -2.8080   -1.1720   -4.4690 o         1 MOL     -0.592149
      4 H1         -5.2450   -2.3510   -5.7490 hc        1 MOL      0.116971
      5 H2         -5.9020   -0.7620   -5.2880 hc        1 MOL      0.116971
      6 H3         -4.4910   -0.8620   -6.3690 hc        1 MOL      0.116971
      7 N1         -4.6600   -0.9600   -3.1410 n         1 MOL     -0.317083
      8 C3         -3.9840   -0.5670   -1.8590 c3        1 MOL      0.236472
      9 C4         -3.7770   -1.8270   -0.9540 c         1 MOL      0.223005
     10 O2         -2.7440   -2.0700   -0.2740 o         1 MOL     -0.553384
     11 C5         -4.8470    0.5790   -1.2730 c3        1 MOL     -0.213181
     12 C6         -6.2930    0.2810   -1.0590 c         1 MOL      0.547375
     13 O3         -6.6320   -0.8330   -0.6390 o         1 MOL     -0.613436
     14 O4         -7.1730    1.1320   -1.2680 o         1 MOL     -0.613436
     15 H4         -5.6580   -1.0720   -3.1210 hn        1 MOL      0.275454
     16 H5         -3.0270   -0.0990   -2.0920 h1        1 MOL      0.051896
     17 H6         -4.7710    1.4160   -1.9670 hc        1 MOL      0.051969
     18 H7         -4.3900    0.7190   -0.2950 hc        1 MOL      0.051969
     19 N2         -4.8110   -2.7210   -1.0320 n         1 MOL     -0.238963
     20 C7         -4.8080   -4.0690   -0.4120 c3        1 MOL      0.068302
     21 C8         -5.0990   -3.9880    1.0570 c         1 MOL      0.495061
     22 O5         -5.9160   -4.6910    1.5880 o         1 MOL     -0.545252
     23 C9         -5.7870   -4.9380   -1.1840 c3        1 MOL      0.058149
     24 C10        -5.2160   -5.2600   -2.5910 c3        1 MOL      0.050901
     25 C11        -6.1880   -5.8950   -3.6480 c3        1 MOL      0.038055
     26 C12        -6.6250   -7.2430   -3.0890 c3        1 MOL     -0.038719
     27 N3         -7.3580   -8.0790   -4.0680 n4        1 MOL     -0.275790
     28 H8         -5.6270   -2.3300   -1.4950 hn        1 MOL      0.187385
     29 H9         -3.7860   -4.4460   -0.4540 h1        1 MOL      0.045767
     30 H10        -6.7450   -4.4190   -1.2640 hc        1 MOL     -0.004703
     31 H11        -5.9620   -5.8750   -0.6580 hc        1 MOL     -0.004703
     32 H12        -4.3100   -5.8330   -2.4020 hc        1 MOL     -0.040851
     33 H13        -4.9280   -4.3210   -3.0490 hc        1 MOL     -0.040851
     34 H14        -5.6120   -6.0530   -4.5590 hc        1 MOL      0.009331
     35 H15        -7.0090   -5.2380   -3.9230 hc        1 MOL      0.009331
     36 H16        -7.3630   -7.0360   -2.3170 hx        1 MOL      0.110106
     37 H17        -5.7480   -7.7110   -2.6590 hx        1 MOL      0.110106
     38 H18        -6.9020   -8.2720   -4.9470 hn        1 MOL      0.305959
     39 H19        -7.5940   -8.9760   -3.6650 hn        1 MOL      0.305959
     40 H20        -8.2140   -7.7370   -4.4820 hn        1 MOL      0.305959
     41 N4         -4.4820   -3.0180    1.6940 n         1 MOL     -0.390822
     42 C13        -4.3280   -2.7500    3.1360 c3        1 MOL      0.064575
     43 C14        -4.4920   -1.2510    3.3650 c         1 MOL      0.543561
     44 O6         -3.9540   -0.7220    4.3330 o         1 MOL     -0.530227
     45 C15        -2.9380   -3.2580    3.5330 c3        1 MOL     -0.277908
     46 C16        -1.7620   -2.8830    2.5910 c         1 MOL      0.636914
     47 O7         -1.1580   -3.8290    2.0060 o         1 MOL     -0.677588
     48 O8         -1.4130   -1.7050    2.3490 o         1 MOL     -0.677588
     49 H21        -3.8220   -2.5050    1.1240 hn        1 MOL      0.355522
     50 H22        -5.0890   -3.2800    3.7170 h1        1 MOL      0.106085
     51 H23        -3.0140   -4.3430    3.5980 hc        1 MOL      0.079058
     52 H24        -2.7300   -2.8900    4.5360 hc        1 MOL      0.079058
     53 N5         -5.2720   -0.5760    2.5100 n         1 MOL     -0.507096
     54 C17        -5.4660    0.9040    2.5770 c3        1 MOL      0.150791
     55 C18        -6.4950    1.4380    3.5420 c         1 MOL      0.529467
     56 O9         -7.3290    0.6350    4.0490 o         1 MOL     -0.535821
     57 H25        -5.3920   -1.0900    1.6550 hn        1 MOL      0.240280
     58 H26        -5.8260    1.1940    1.5960 h1        1 MOL      0.077829
     59 H27        -4.4970    1.3580    2.7670 h1        1 MOL      0.077829
     60 N6         -6.5660    2.7070    3.8410 n         1 MOL     -0.515594
     61 C19        -5.7200    3.7250    3.2240 c3        1 MOL      0.227535
     62 C20        -6.1270    3.9300    1.7320 c         1 MOL      0.354017
     63 O10        -7.3100    4.0140    1.4140 o         1 MOL     -0.457256
     64 C21        -5.7060    5.0560    4.0190 c3        1 MOL     -0.233089
     65 C22        -5.1520    4.9030    5.3840 c         1 MOL      0.636885
     66 N7         -3.8940    4.7890    5.5220 n         1 MOL     -0.759355
     67 O11        -5.8930    4.9160    6.3210 o         1 MOL     -0.557051
     68 H28        -7.3170    3.0520    4.4150 hn        1 MOL      0.328505
     69 H29        -4.6670    3.4470    3.3560 h1        1 MOL      0.018311
     70 H30        -6.6800    5.5400    4.0350 hc        1 MOL      0.089459
     71 H31        -5.0950    5.8060    3.5100 hc        1 MOL      0.089459
     72 H32        -3.1790    4.6440    4.8250 hn        1 MOL      0.358694
     73 H33        -3.6730    4.8520    6.5070 hn        1 MOL      0.358694
     74 N8         -5.1640    4.1450    0.8040 n         1 MOL     -0.292947
     75 C23        -3.7340    4.0720    0.9660 c3        1 MOL     -0.159543
     76 C24        -2.8940    4.4070   -0.2870 c         1 MOL      0.729873
     77 O12        -3.3090    5.0240   -1.2840 o         1 MOL     -0.532724
     78 H34        -5.3020    4.3450   -0.1830 hn        1 MOL      0.252223
     79 H35        -3.3710    3.0710    1.2160 h1        1 MOL      0.036894
     80 H36        -3.5240    4.7900    1.7590 h1        1 MOL      0.036894
     81 N9         -1.5770    4.0730   -0.2350 n         1 MOL     -0.727404
     82 C25        -0.4890    4.3270   -1.1580 c3        1 MOL      0.394205
     83 C26         0.6930    3.2860   -1.0540 c         1 MOL      0.304516
     84 O13         0.6040    2.4140   -0.2190 o         1 MOL     -0.426086
     85 C27        -0.1370    5.7620   -0.9900 c3        1 MOL     -0.223227
     86 C28         0.7160    6.3780   -2.1010 ca        1 MOL      0.164775
     87 C29         1.8310    7.0890   -1.7220 ca        1 MOL     -0.265566
     88 C30         0.3230    6.3430   -3.4900 ca        1 MOL     -0.265566
     89 C31         2.6650    7.6590   -2.6970 ca        1 MOL     -0.142686
     90 C32         1.1650    6.8720   -4.5080 ca        1 MOL     -0.142686
     91 C33         2.3270    7.5540   -4.1080 ca        1 MOL      0.235878
     92 O14         3.0690    8.2340   -5.0320 oh        1 MOL     -0.488874
     93 H37        -1.2340    3.7710    0.6580 hn        1 MOL      0.327325
     94 H38        -0.9570    4.1960   -2.1380 h1        1 MOL      0.004349
     95 H39         0.3570    6.0460   -0.0670 hc        1 MOL      0.092111
     96 H40        -1.0880    6.2890   -1.0100 hc        1 MOL      0.092111
     97 H41         2.0950    7.3480   -0.7070 ha        1 MOL      0.164805
     98 H42        -0.5690    5.7990   -3.7770 ha        1 MOL      0.164805
     99 H43         3.4920    8.2770   -2.3700 ha        1 MOL      0.133298
    100 H44         0.8330    6.8040   -5.5380 ha        1 MOL      0.133298
    101 H45         2.7470    8.1250   -5.9250 ho        1 MOL      0.378632
    102 N10         1.8300    3.5600   -1.6740 n         1 MOL     -0.317749
    103 C34         2.9730    2.6110   -1.7250 c3        1 MOL     -0.260911
    104 C35         4.0320    3.0760   -0.7270 c         1 MOL      0.766199
    105 O15         4.0830    4.2230   -0.3160 o         1 MOL     -0.558919
    106 C36         3.4540    2.6120   -3.1950 c3        1 MOL      0.211926
    107 C37         2.6210    1.4590   -3.9930 c3        1 MOL      0.065821
    108 C38         3.4440    3.9890   -3.9880 c3        1 MOL     -0.067101
    109 C39         3.3670    1.0390   -5.3150 c3        1 MOL     -0.085456
    110 H46         1.9250    4.4440   -2.1580 hn        1 MOL      0.217380
    111 H47         2.7100    1.5840   -1.4500 h1        1 MOL      0.102978
    112 H48         4.4970    2.3040   -3.1650 hc        1 MOL     -0.012135
    113 H49         1.6140    1.7930   -4.2470 hc        1 MOL     -0.021074
    114 H50         2.6080    0.5640   -3.3690 hc        1 MOL     -0.021074
    115 H51         4.2240    4.6480   -3.6000 hc        1 MOL      0.011971
    116 H52         3.7850    3.7580   -5.0020 hc        1 MOL      0.011971
    117 H53         2.4410    4.4050   -3.9700 hc        1 MOL      0.011971
    118 H54         2.9940    0.1230   -5.7630 hc        1 MOL      0.016555
    119 H55         3.3060    1.8380   -6.0630 hc        1 MOL      0.016555
    120 H56         4.4160    0.9690   -5.0120 hc        1 MOL      0.016555
    121 N11         4.8870    2.1650   -0.3680 n         1 MOL     -0.524576
    122 C40         6.0470    2.4440    0.5140 c3        1 MOL     -0.024997
    123 C41         6.4300    1.3250    1.4180 c         1 MOL      0.649233
    124 O16         6.1150    0.1270    1.3670 o         1 MOL     -0.504343
    125 C42         7.2980    2.7940   -0.3170 c3        1 MOL      0.082602
    126 O17         7.7340    1.8270   -1.2300 oh        1 MOL     -0.609699
    127 H57         4.5810    1.2180   -0.5540 hn        1 MOL      0.322775
    128 H58         5.8170    3.3780    1.0310 h1        1 MOL      0.081693
    129 H59         8.1780    3.0580    0.2730 h1        1 MOL      0.046795
    130 H60         7.1200    3.6470   -0.9730 h1        1 MOL      0.046795
    131 H61         8.5090    2.1170   -1.7090 ho        1 MOL      0.423049
    132 N12         7.1120    1.7840    2.4660 n         1 MOL     -0.531085
    133 C43         7.4970    0.9490    3.6200 c3        1 MOL      0.187582
    134 C44         8.0820   -0.4670    3.3030 c         1 MOL      0.499838
    135 O18         7.8830   -1.4130    4.0720 o         1 MOL     -0.451540
    136 C45         6.4320    0.9080    4.6700 c3        1 MOL     -0.264874
    137 H62         7.4360    2.7410    2.5280 hn        1 MOL      0.292556
    138 H63         8.3630    1.4160    4.0860 h1        1 MOL      0.046251
    139 H64         5.7910    1.7890    4.6650 hc        1 MOL      0.083943
    140 H65         5.8290    0.0130    4.5170 hc        1 MOL      0.083943
    141 H66         6.8840    0.8150    5.6670 hc        1 MOL      0.083943
    142 N13         8.8830   -0.7020    2.2460 n         1 MOL     -0.657431
    143 C46         9.3790   -2.0860    1.8250 c3        1 MOL      0.453090
    144 C47         8.3650   -3.2920    1.8970 c         1 MOL      0.374324
    145 O19         8.5600   -4.2850    2.5850 o         1 MOL     -0.455549
    146 C48        10.7000   -2.3300    2.5170 c3        1 MOL     -0.421016
    147 H67         9.0500    0.0390    1.5820 hn        1 MOL      0.298794
    148 H68         9.5970   -2.0640    0.7590 h1        1 MOL     -0.045275
    149 H69        11.1490   -3.2940    2.3120 hc        1 MOL      0.109195
    150 H70        11.4490   -1.6650    2.1040 hc        1 MOL      0.109195
    151 H71        10.4460   -2.2520    3.5760 hc        1 MOL      0.109195
    152 N14         7.2330   -3.1150    1.1250 n         1 MOL     -0.391288
    153 C49         6.3430   -4.2660    0.8620 c3        1 MOL      0.063743
    154 C50         6.6750   -4.9860   -0.4650 c         1 MOL      0.317142
    155 O20         6.6450   -6.2400   -0.6210 o         1 MOL     -0.509291
    156 C51         4.9190   -3.6800    0.7740 c3        1 MOL      0.030051
    157 C52         3.9680   -4.6350    0.0770 c3        1 MOL     -0.050650
    158 C53         2.5060   -4.0270    0.0030 c         1 MOL      0.619218
    159 O21         1.5010   -4.6480    0.3730 o         1 MOL     -0.725629
    160 O22         2.4190   -2.8850   -0.5440 o         1 MOL     -0.725629
    161 H72         7.0610   -2.1990    0.7360 hn        1 MOL      0.257895
    162 H73         6.4160   -4.9600    1.7010 h1        1 MOL      0.119025
    163 H74         4.9670   -2.7130    0.2630 hc        1 MOL      0.001547
    164 H75         4.4940   -3.5510    1.7700 hc        1 MOL      0.001547
    165 H76         3.8140   -5.6150    0.5320 hc        1 MOL      0.027611
    166 H77         4.2370   -4.6920   -0.9700 hc        1 MOL      0.027611
    167 N15         6.9610   -4.2160   -1.5310 n         1 MOL     -0.127171
    168 C54         7.2960   -4.7920   -2.8030 c3        1 MOL     -0.316338
    169 H78         6.9700   -5.8320   -2.8280 h1        1 MOL      0.121715
    170 H79         6.7970   -4.2360   -3.5980 h1        1 MOL      0.121715
    171 H80         8.3750   -4.7470   -2.9510 h1        1 MOL      0.121715
    172 H81         7.1490   -3.2250   -1.4340 hn        1 MOL      0.181209
    173 Ca1        -0.1730   -2.6320   -0.2190 Ca        1 MOL      1.770547
    174 O23        -1.4800   -4.7280   -1.0560 oh        1 MOL     -0.900087
    175 H82        -1.8090   -5.1170   -1.8670 ho        1 MOL      0.434147
    176 H83        -1.4320   -5.4670   -0.4400 ho        1 MOL      0.434147
    177 O24        -0.8830   -2.5230   -2.7820 oh        1 MOL     -0.900087
    178 H84        -1.5360   -3.1760   -3.0290 ho        1 MOL      0.434147
    179 H85        -0.8820   -1.8990   -3.5010 ho        1 MOL      0.434147
    180 O25        -0.0490   -0.1010   -1.0670 oh        1 MOL     -0.900087
    181 H86        -0.3570    0.0110   -1.9680 ho        1 MOL      0.434147
    182 H87         0.3790    0.7210   -0.8470 ho        1 MOL      0.434147
    183 O26         1.1520   -1.6090    1.8040 oh        1 MOL     -0.900087
    184 H88         2.0330   -1.3650    2.0770 ho        1 MOL      0.434147
    185 H89         0.6740   -1.7480    2.6220 ho        1 MOL      0.434147
@<TRIPOS>BOND
     1    1    2 1   
     2    1    4 1   
     3    1    5 1   
     4    1    6 1   
     5    2    3 2   
     6    2    7 1   
     7    7    8 1   
     8    7   15 1   
     9    8    9 1   
    10    8   11 1   
    11    8   16 1   
    12    9   10 2   
    13    9   19 1   
    14   11   12 1   
    15   11   17 1   
    16   11   18 1   
    17   12   13 1   
    18   12   14 1   
    19   19   20 1   
    20   19   28 1   
    21   20   21 1   
    22   20   23 1   
    23   20   29 1   
    24   21   22 2   
    25   21   41 1   
    26   23   24 1   
    27   23   30 1   
    28   23   31 1   
    29   24   25 1   
    30   24   32 1   
    31   24   33 1   
    32   25   26 1   
    33   25   34 1   
    34   25   35 1   
    35   26   27 1   
    36   26   36 1   
    37   26   37 1   
    38   27   38 1   
    39   27   39 1   
    40   27   40 1   
    41   41   42 1   
    42   41   49 1   
    43   42   43 1   
    44   42   45 1   
    45   42   50 1   
    46   43   44 2   
    47   43   53 1   
    48   45   46 1   
    49   45   51 1   
    50   45   52 1   
    51   46   47 1   
    52   46   48 1   
    53   53   54 1   
    54   53   57 1   
    55   54   55 1   
    56   54   58 1   
    57   54   59 1   
    58   55   56 2   
    59   55   60 1   
    60   60   61 1   
    61   60   68 1   
    62   61   62 1   
    63   61   64 1   
    64   61   69 1   
    65   62   63 2   
    66   62   74 1   
    67   64   65 1   
    68   64   70 1   
    69   64   71 1   
    70   65   66 1   
    71   65   67 2   
    72   66   72 1   
    73   66   73 1   
    74   74   75 1   
    75   74   78 1   
    76   75   76 1   
    77   75   79 1   
    78   75   80 1   
    79   76   77 2   
    80   76   81 1   
    81   81   82 1   
    82   81   93 1   
    83   82   83 1   
    84   82   85 1   
    85   82   94 1   
    86   83   84 2   
    87   83  102 1   
    88   85   86 1   
    89   85   95 1   
    90   85   96 1   
    91   86   87 ar  
    92   86   88 ar  
    93   87   89 ar  
    94   87   97 1   
    95   88   90 ar  
    96   88   98 1   
    97   89   91 ar  
    98   89   99 1   
    99   90   91 ar  
   100   90  100 1   
   101   91   92 1   
   102   92  101 1   
   103  102  103 1   
   104  102  110 1   
   105  103  104 1   
   106  103  106 1   
   107  103  111 1   
   108  104  105 2   
   109  104  121 1   
   110  106  107 1   
   111  106  108 1   
   112  106  112 1   
   113  107  109 1   
   114  107  113 1   
   115  107  114 1   
   116  108  115 1   
   117  108  116 1   
   118  108  117 1   
   119  109  118 1   
   120  109  119 1   
   121  109  120 1   
   122  121  122 1   
   123  121  127 1   
   124  122  123 1   
   125  122  125 1   
   126  122  128 1   
   127  123  124 2   
   128  123  132 1   
   129  125  126 1   
   130  125  129 1   
   131  125  130 1   
   132  126  131 1   
   133  132  133 1   
   134  132  137 1   
   135  133  134 1   
   136  133  136 1   
   137  133  138 1   
   138  134  135 2   
   139  134  142 1   
   140  136  139 1   
   141  136  140 1   
   142  136  141 1   
   143  142  143 1   
   144  142  147 1   
   145  143  144 1   
   146  143  146 1   
   147  143  148 1   
   148  144  145 2   
   149  144  152 1   
   150  146  149 1   
   151  146  150 1   
   152  146  151 1   
   153  152  153 1   
   154  152  161 1   
   155  153  154 1   
   156  153  156 1   
   157  153  162 1   
   158  154  155 2   
   159  154  167 1   
   160  156  157 1   
   161  156  163 1   
   162  156  164 1   
   163  157  158 1   
   164  157  165 1   
   165  157  166 1   
   166  158  159 1   
   167  158  160 1   
   168  167  168 1   
   169  167  172 1   
   170  168  169 1   
   171  168  170 1   
   172  168  171 1   
   173  174  175 1   
   174  174  176 1   
   175  177  178 1   
   176  177  179 1   
   177  180  181 1   
   178  180  182 1   
   179  183  184 1   
   180  183  185 1   
@<TRIPOS>SUBSTRUCTURE
     1 MOL         1 TEMP              0 ****  ****    0 ROOT
