@<TRIPOS>MOLECULE
MOL
  189   185     1     0     0
SMALL
resp


@<TRIPOS>ATOM
      1 C1         11.8100    5.2490   -4.0280 c3        1 MOL     -0.373571
      2 C2         11.6330    3.8830   -3.3680 c         1 MOL      0.673326
      3 O1         11.7940    2.7980   -3.9250 o         1 MOL     -0.607013
      4 H1         12.6640    5.7590   -3.5830 hc        1 MOL      0.101601
      5 H2         11.9810    5.1190   -5.0960 hc        1 MOL      0.101601
      6 H3         10.9110    5.8470   -3.8740 hc        1 MOL      0.101601
      7 N1         11.0700    3.9760   -2.1630 n         1 MOL     -0.204662
      8 C3         10.9240    2.8400   -1.2060 c3        1 MOL     -0.429667
      9 C4          9.4560    2.3080   -1.2020 c         1 MOL      0.959505
     10 O2          8.4680    3.0420   -1.2350 o         1 MOL     -0.752907
     11 C5         11.3360    3.1440    0.1900 c3        1 MOL     -0.007294
     12 C6         10.8690    4.4090    0.8160 c         1 MOL      0.864692
     13 O3         11.4490    4.7630    1.8580 o         1 MOL     -0.742711
     14 O4          9.9350    5.1620    0.3610 o         1 MOL     -0.742711
     15 H4         10.8410    4.9060   -1.8380 hn        1 MOL      0.085586
     16 H5         11.6320    2.0740   -1.5220 h1        1 MOL      0.152420
     17 H6         12.4300    3.1760    0.2080 hc        1 MOL      0.022539
     18 H7         11.0230    2.3350    0.8490 hc        1 MOL      0.022539
     19 N2          9.3200    0.9770   -1.1570 n         1 MOL     -0.923923
     20 C7          8.0310    0.2940   -1.3850 c3        1 MOL      0.586024
     21 C8          6.9270    0.6140   -0.3390 c         1 MOL      0.391040
     22 O5          7.1770    0.9090    0.8430 o         1 MOL     -0.520926
     23 C9          8.1810   -1.2390   -1.3350 c3        1 MOL     -0.579115
     24 C10         9.1680   -1.9300   -2.3100 c3        1 MOL      0.102152
     25 C11         9.0330   -3.4260   -2.1650 c3        1 MOL      0.080583
     26 C12         9.9670   -4.1640   -3.0200 c3        1 MOL      0.040121
     27 N3         10.0770   -5.6200   -2.6630 n4        1 MOL     -0.187637
     28 H8         10.1650    0.5000   -0.8800 hn        1 MOL      0.436582
     29 H9          7.6510    0.6020   -2.3600 h1        1 MOL      0.039090
     30 H10         7.2060   -1.5870   -1.6890 hc        1 MOL      0.163317
     31 H11         8.4650   -1.5600   -0.3310 hc        1 MOL      0.163317
     32 H12        10.1690   -1.5890   -2.0530 hc        1 MOL      0.009876
     33 H13         8.9000   -1.6950   -3.3460 hc        1 MOL      0.009876
     34 H14         8.0100   -3.6110   -2.4900 hc        1 MOL      0.011700
     35 H15         9.2130   -3.7520   -1.1340 hc        1 MOL      0.011700
     36 H16        10.9550   -3.7120   -2.8920 hx        1 MOL      0.053243
     37 H17         9.7140   -3.9600   -4.0640 hx        1 MOL      0.053243
     38 H18         9.2040   -5.9630   -2.2960 hn        1 MOL      0.224118
     39 H19        10.1970   -6.2420   -3.4580 hn        1 MOL      0.224118
     40 H20        10.8450   -5.7710   -2.0270 hn        1 MOL      0.224118
     41 N4          5.6980    0.6050   -0.8470 n         1 MOL     -0.451580
     42 C13         4.4130    0.6180   -0.0840 c3        1 MOL      0.396213
     43 C14         3.4000   -0.3370   -0.7210 c         1 MOL      0.291389
     44 O6          3.3940   -0.4070   -1.9200 o         1 MOL     -0.472904
     45 C15         3.7940    2.0590   -0.0960 c3        1 MOL     -0.053473
     46 C16         4.8470    3.1330    0.0660 c         1 MOL      0.744985
     47 O7          5.2020    3.7950   -0.9190 o         1 MOL     -0.811141
     48 O8          5.2870    3.3960    1.1540 o         1 MOL     -0.811141
     49 H21         5.6250    0.3200   -1.8080 hn        1 MOL      0.217295
     50 H22         4.6250    0.4090    0.9650 h1        1 MOL      0.037642
     51 H23         3.0680    2.2320    0.7040 hc        1 MOL      0.027454
     52 H24         3.2760    2.2590   -1.0430 hc        1 MOL      0.027454
     53 N5          2.3400   -0.7930    0.0110 n         1 MOL     -0.301613
     54 C17         2.1850   -0.5630    1.4520 c3        1 MOL     -0.472540
     55 C18         3.0170   -1.7000    2.1840 c         1 MOL      0.698447
     56 O9          4.1410   -2.0440    1.6780 o         1 MOL     -0.584000
     57 H25         1.6710   -1.4860   -0.2900 hn        1 MOL      0.310138
     58 H26         1.1490   -0.5290    1.7850 h1        1 MOL      0.179511
     59 H27         2.5170    0.4340    1.7490 h1        1 MOL      0.179511
     60 N6          2.5290   -2.1680    3.3550 n         1 MOL     -0.502215
     61 C19         3.0930   -3.2760    4.1970 c3        1 MOL      0.128511
     62 C20         2.2470   -4.5120    3.9950 c         1 MOL      0.486120
     63 O10         1.1290   -4.6040    4.4500 o         1 MOL     -0.491575
     64 C21         3.2740   -2.8390    5.6800 c3        1 MOL     -0.308456
     65 C22         3.8800   -3.8990    6.5940 c         1 MOL      0.756776
     66 O11         4.5210   -4.8640    6.1300 o         1 MOL     -0.652014
     67 O12         3.8600   -3.7210    7.8420 o         1 MOL     -0.652014
     68 H28         1.5460   -1.9420    3.4350 hn        1 MOL      0.290106
     69 H29         4.0500   -3.4890    3.7200 h1        1 MOL      0.040537
     70 H30         2.4040   -2.3970    6.1630 hc        1 MOL      0.092247
     71 H31         3.9920   -2.0270    5.5780 hc        1 MOL      0.092247
     72 N7          2.7610   -5.4940    3.2340 n         1 MOL     -0.334751
     73 C23         2.0600   -6.7010    2.8100 c3        1 MOL     -0.220608
     74 C24         1.0630   -6.5090    1.6460 c         1 MOL      0.539660
     75 O13         0.3900   -7.4710    1.3410 o         1 MOL     -0.566694
     76 H32         3.6860   -5.3940    2.8490 hn        1 MOL      0.252950
     77 H33         1.4510   -7.0580    3.6500 h1        1 MOL      0.144111
     78 H34         2.7160   -7.5070    2.4800 h1        1 MOL      0.144111
     79 N8          0.9900   -5.3610    0.9820 n         1 MOL     -0.255467
     80 C25         0.1750   -5.0290   -0.1790 c3        1 MOL     -0.151992
     81 C26        -0.4040   -3.5930   -0.1200 c         1 MOL      0.732454
     82 O14         0.1340   -2.7610    0.5040 o         1 MOL     -0.527553
     83 C27         0.9100   -5.3420   -1.4870 c3        1 MOL      0.365369
     84 C28         0.0820   -5.5610   -2.7120 c3        1 MOL     -0.263851
     85 O15         1.9610   -4.4900   -1.7820 oh        1 MOL     -0.588173
     86 H35         1.5610   -4.6410    1.3960 hn        1 MOL      0.127795
     87 H36        -0.6430   -5.7360   -0.0340 h1        1 MOL      0.083141
     88 H37         1.4140   -6.2810   -1.2750 h1        1 MOL      0.005106
     89 H38         2.7180   -4.7350   -1.2390 ho        1 MOL      0.381713
     90 H39         0.6310   -6.2380   -3.3710 hc        1 MOL      0.067261
     91 H40        -0.8490   -6.0690   -2.4510 hc        1 MOL      0.067261
     92 H41        -0.2420   -4.6110   -3.1300 hc        1 MOL      0.067261
     93 N9         -1.4220   -3.3450   -0.9220 n         1 MOL     -0.683106
     94 C29        -2.1400   -2.0500   -0.9880 c3        1 MOL     -0.019440
     95 C30        -3.6680   -2.1620   -0.6370 c         1 MOL      0.718354
     96 O16        -4.2190   -1.1920   -0.1840 o         1 MOL     -0.562288
     97 C31        -1.8470   -1.5570   -2.4510 c3        1 MOL      0.206000
     98 C32        -0.3190   -1.2110   -2.7220 c3        1 MOL      0.077288
     99 C33        -2.6410   -0.4270   -2.9070 c3        1 MOL     -0.461581
    100 C34        -0.0660   -0.9140   -4.1830 c3        1 MOL     -0.196682
    101 H42        -1.7290   -4.1050   -1.5090 hn        1 MOL      0.328510
    102 H43        -1.6780   -1.2910   -0.3660 h1        1 MOL      0.104890
    103 H44        -2.0940   -2.4100   -3.0800 hc        1 MOL     -0.013401
    104 H45         0.3540   -2.0220   -2.4370 hc        1 MOL      0.004476
    105 H46         0.0520   -0.4530   -2.0310 hc        1 MOL      0.004476
    106 H47        -3.6860   -0.6720   -2.7810 hc        1 MOL      0.127039
    107 H48        -2.2760    0.4480   -2.3620 hc        1 MOL      0.127039
    108 H49        -2.6200   -0.2900   -3.9930 hc        1 MOL      0.127039
    109 H50        -0.6230   -0.0910   -4.6160 hc        1 MOL      0.046741
    110 H51         1.0130   -0.7620   -4.3260 hc        1 MOL      0.046741
    111 H52        -0.3840   -1.7940   -4.7460 hc        1 MOL      0.046741
    112 N10        -4.4320   -3.2740   -0.7760 n         1 MOL     -0.585040
    113 C35        -5.9520   -3.2520   -0.6290 c3        1 MOL     -0.003503
    114 C36        -6.6540   -2.5300   -1.7840 c         1 MOL      0.536790
    115 O17        -6.3820   -2.8140   -2.9740 o         1 MOL     -0.537478
    116 C37        -6.6150   -4.6090   -0.4460 c3        1 MOL      0.285077
    117 C38        -6.2250   -5.0770    0.9140 c3        1 MOL     -0.333120
    118 O18        -7.9870   -4.4580   -0.4280 oh        1 MOL     -0.633548
    119 H53        -4.0490   -4.1820   -0.9990 hn        1 MOL      0.288254
    120 H54        -6.1090   -2.6230    0.2490 h1        1 MOL      0.128980
    121 H55        -6.3580   -5.3320   -1.2230 h1        1 MOL      0.049764
    122 H56        -8.4700   -5.2520   -0.1730 ho        1 MOL      0.416839
    123 H57        -6.2790   -4.3260    1.6980 hc        1 MOL      0.093869
    124 H58        -6.7540   -5.9840    1.2170 hc        1 MOL      0.093869
    125 H59        -5.2080   -5.4400    0.9010 hc        1 MOL      0.093869
    126 N11        -7.5940   -1.6240   -1.4690 n         1 MOL     -0.556844
    127 C39        -8.4790   -1.0490   -2.5160 c3        1 MOL      0.130455
    128 C40        -8.8250    0.4010   -2.3170 c         1 MOL      0.554103
    129 O19        -8.9990    1.1280   -3.2970 o         1 MOL     -0.579268
    130 C41        -9.7460   -1.9550   -2.6590 c3        1 MOL      0.352253
    131 C42       -10.6260   -1.6400   -3.9330 c3        1 MOL     -0.410143
    132 O20       -10.6250   -1.7380   -1.6560 oh        1 MOL     -0.671877
    133 H60        -7.7750   -1.5620   -0.4820 hn        1 MOL      0.330018
    134 H61        -7.9050   -1.1360   -3.4370 h1        1 MOL      0.091120
    135 H62        -9.4910   -3.0120   -2.6840 h1        1 MOL      0.028592
    136 H63       -11.4330   -2.0450   -2.0690 ho        1 MOL      0.384722
    137 H64       -10.9710   -0.6170   -4.0150 hc        1 MOL      0.099865
    138 H65       -10.0460   -1.9250   -4.8130 hc        1 MOL      0.099865
    139 H66       -11.5500   -2.2060   -3.8350 hc        1 MOL      0.099865
    140 N12        -8.8650    0.8290   -1.0930 n         1 MOL     -0.360739
    141 C43        -9.3680    2.1300   -0.6490 c3        1 MOL      0.064815
    142 C44        -8.4130    2.6620    0.4610 c         1 MOL      0.455789
    143 O21        -7.6310    1.9720    1.1290 o         1 MOL     -0.487808
    144 C45       -10.7310    1.9360    0.0280 c3        1 MOL     -0.263653
    145 C46       -11.8420    1.8150   -1.0520 c3        1 MOL      0.137087
    146 C47       -13.2000    1.4000   -0.5400 c3        1 MOL      0.035162
    147 C48       -13.2310   -0.0940   -0.1130 c3        1 MOL      0.026975
    148 N13       -14.6500   -0.4270    0.1360 n4        1 MOL     -0.059240
    149 H67        -8.5570    0.2000   -0.3660 hn        1 MOL      0.221442
    150 H68        -9.5440    2.8360   -1.4540 h1        1 MOL      0.082003
    151 H69       -10.9950    2.6470    0.8080 hc        1 MOL      0.097818
    152 H70       -10.6910    0.9740    0.5540 hc        1 MOL      0.097818
    153 H71       -11.4920    1.1710   -1.8510 hc        1 MOL     -0.000072
    154 H72       -11.9810    2.7980   -1.5130 hc        1 MOL     -0.000072
    155 H73       -13.8370    1.4710   -1.4260 hc        1 MOL     -0.000764
    156 H74       -13.4160    2.0800    0.2800 hc        1 MOL     -0.000764
    157 H75       -12.6640   -0.1370    0.8190 hx        1 MOL      0.056911
    158 H76       -12.9350   -0.7780   -0.9040 hx        1 MOL      0.056911
    159 H77       -15.2460    0.1570    0.7140 hn        1 MOL      0.182446
    160 H78       -15.1550   -0.5350   -0.7350 hn        1 MOL      0.182446
    161 H79       -14.6990   -1.3760    0.4840 hn        1 MOL      0.182446
    162 N14        -8.5620    3.9620    0.7120 n         1 MOL     -0.385020
    163 C49        -7.8380    4.7510    1.7450 c3        1 MOL      0.116525
    164 C50        -6.2880    4.5570    1.7410 c         1 MOL      0.477729
    165 O22        -5.7230    4.5200    2.7660 o         1 MOL     -0.513348
    166 C51        -8.2430    6.2480    1.8500 c3        1 MOL      0.069882
    167 C52        -9.6250    6.3140    2.4260 c3        1 MOL     -0.127533
    168 C53       -10.2420    7.6610    2.4900 c         1 MOL      0.681575
    169 O23       -10.5490    8.2240    1.4350 o         1 MOL     -0.649035
    170 O24       -10.3460    8.2660    3.5950 o         1 MOL     -0.649035
    171 H80        -9.1990    4.4240    0.0780 hn        1 MOL      0.278318
    172 H81        -8.1460    4.3470    2.7110 h1        1 MOL      0.056483
    173 H82        -8.3170    6.5680    0.8090 hc        1 MOL      0.016294
    174 H83        -7.5450    6.8180    2.4650 hc        1 MOL      0.016294
    175 H84        -9.5070    5.8960    3.4290 hc        1 MOL     -0.011002
    176 H85       -10.3750    5.7140    1.9060 hc        1 MOL     -0.011002
    177 N15        -5.5240    4.5660    0.5980 n         1 MOL     -0.465304
    178 C54        -5.9860    4.9580   -0.8450 c3        1 MOL      0.018114
    179 H86        -6.9480    4.4920   -1.0570 h1        1 MOL      0.034372
    180 H87        -6.0840    6.0410   -0.9140 h1        1 MOL      0.034372
    181 H88        -5.2480    4.6130   -1.5690 h1        1 MOL      0.034372
    182 H89        -4.5980    4.2100    0.7400 hn        1 MOL      0.312558
    183 Ca1         7.2750    5.0040    0.1780 Ca        1 MOL      1.746560
    184 O25         8.1080    3.1680    2.0350 oh        1 MOL     -0.880468
    185 H90         7.8190    2.3450    1.6220 ho        1 MOL      0.439278
    186 H91         7.9350    3.0260    2.9700 ho        1 MOL      0.439278
    187 O26         8.1360    6.4180    2.2190 oh        1 MOL     -0.880468
    188 H92         8.4590    6.2480    3.1070 ho        1 MOL      0.439278
    189 H93         8.4920    7.2770    1.9910 ho        1 MOL      0.439278
@<TRIPOS>BOND
     1    1    2 1   
     2    1    4 1   
     3    1    5 1   
     4    1    6 1   
     5    2    3 2   
     6    2    7 1   
     7    7    8 1   
     8    7   15 1   
     9    8    9 1   
    10    8   11 1   
    11    8   16 1   
    12    9   10 2   
    13    9   19 1   
    14   11   12 1   
    15   11   17 1   
    16   11   18 1   
    17   12   13 1   
    18   12   14 1   
    19   19   20 1   
    20   19   28 1   
    21   20   21 1   
    22   20   23 1   
    23   20   29 1   
    24   21   22 2   
    25   21   41 1   
    26   23   24 1   
    27   23   30 1   
    28   23   31 1   
    29   24   25 1   
    30   24   32 1   
    31   24   33 1   
    32   25   26 1   
    33   25   34 1   
    34   25   35 1   
    35   26   27 1   
    36   26   36 1   
    37   26   37 1   
    38   27   38 1   
    39   27   39 1   
    40   27   40 1   
    41   41   42 1   
    42   41   49 1   
    43   42   43 1   
    44   42   45 1   
    45   42   50 1   
    46   43   44 2   
    47   43   53 1   
    48   45   46 1   
    49   45   51 1   
    50   45   52 1   
    51   46   47 1   
    52   46   48 1   
    53   53   54 1   
    54   53   57 1   
    55   54   55 1   
    56   54   58 1   
    57   54   59 1   
    58   55   56 2   
    59   55   60 1   
    60   60   61 1   
    61   60   68 1   
    62   61   62 1   
    63   61   64 1   
    64   61   69 1   
    65   62   63 2   
    66   62   72 1   
    67   64   65 1   
    68   64   70 1   
    69   64   71 1   
    70   65   66 1   
    71   65   67 1   
    72   72   73 1   
    73   72   76 1   
    74   73   74 1   
    75   73   77 1   
    76   73   78 1   
    77   74   75 2   
    78   74   79 1   
    79   79   80 1   
    80   79   86 1   
    81   80   81 1   
    82   80   83 1   
    83   80   87 1   
    84   81   82 2   
    85   81   93 1   
    86   83   84 1   
    87   83   85 1   
    88   83   88 1   
    89   84   90 1   
    90   84   91 1   
    91   84   92 1   
    92   85   89 1   
    93   93   94 1   
    94   93  101 1   
    95   94   95 1   
    96   94   97 1   
    97   94  102 1   
    98   95   96 2   
    99   95  112 1   
   100   97   98 1   
   101   97   99 1   
   102   97  103 1   
   103   98  100 1   
   104   98  104 1   
   105   98  105 1   
   106   99  106 1   
   107   99  107 1   
   108   99  108 1   
   109  100  109 1   
   110  100  110 1   
   111  100  111 1   
   112  112  113 1   
   113  112  119 1   
   114  113  114 1   
   115  113  116 1   
   116  113  120 1   
   117  114  115 2   
   118  114  126 1   
   119  116  117 1   
   120  116  118 1   
   121  116  121 1   
   122  117  123 1   
   123  117  124 1   
   124  117  125 1   
   125  118  122 1   
   126  126  127 1   
   127  126  133 1   
   128  127  128 1   
   129  127  130 1   
   130  127  134 1   
   131  128  129 2   
   132  128  140 1   
   133  130  131 1   
   134  130  132 1   
   135  130  135 1   
   136  131  137 1   
   137  131  138 1   
   138  131  139 1   
   139  132  136 1   
   140  140  141 1   
   141  140  149 1   
   142  141  142 1   
   143  141  144 1   
   144  141  150 1   
   145  142  143 2   
   146  142  162 1   
   147  144  145 1   
   148  144  151 1   
   149  144  152 1   
   150  145  146 1   
   151  145  153 1   
   152  145  154 1   
   153  146  147 1   
   154  146  155 1   
   155  146  156 1   
   156  147  148 1   
   157  147  157 1   
   158  147  158 1   
   159  148  159 1   
   160  148  160 1   
   161  148  161 1   
   162  162  163 1   
   163  162  171 1   
   164  163  164 1   
   165  163  166 1   
   166  163  172 1   
   167  164  165 2   
   168  164  177 1   
   169  166  167 1   
   170  166  173 1   
   171  166  174 1   
   172  167  168 1   
   173  167  175 1   
   174  167  176 1   
   175  168  169 1   
   176  168  170 1   
   177  177  178 1   
   178  177  182 1   
   179  178  179 1   
   180  178  180 1   
   181  178  181 1   
   182  184  185 1   
   183  184  186 1   
   184  187  188 1   
   185  187  189 1   
@<TRIPOS>SUBSTRUCTURE
     1 MOL         1 TEMP              0 ****  ****    0 ROOT
