@<TRIPOS>MOLECULE
MOL
  181   177     1     0     0
SMALL
resp


@<TRIPOS>ATOM
      1 C1         10.0610    7.1450   -0.8200 c3        1 MOL     -0.091771
      2 C2          8.9140    6.2330   -0.4790 c         1 MOL      0.522113
      3 O1          7.9390    6.6990    0.2100 o         1 MOL     -0.564411
      4 H1         10.5940    7.4130    0.0920 hc        1 MOL      0.030086
      5 H2         10.7420    6.6340   -1.5010 hc        1 MOL      0.030086
      6 H3          9.6780    8.0470   -1.2960 hc        1 MOL      0.030086
      7 N1          8.8450    4.9240   -0.8580 n         1 MOL     -0.403888
      8 C3          9.7550    4.2990   -1.8030 c3        1 MOL      0.069401
      9 C4         10.9850    3.6700   -1.0720 c         1 MOL      0.566015
     10 O2         12.1280    3.9800   -1.4070 o         1 MOL     -0.570445
     11 C5          9.0540    3.2800   -2.7510 c3        1 MOL     -0.355235
     12 C6          8.2350    2.2220   -2.1120 c         1 MOL      0.957621
     13 O3          8.6960    1.1440   -1.7660 o         1 MOL     -0.851173
     14 O4          6.9870    2.4230   -1.9080 o         1 MOL     -0.851173
     15 H4          8.1310    4.3850   -0.3950 hn        1 MOL      0.303833
     16 H5         10.0960    5.0940   -2.4590 h1        1 MOL      0.085941
     17 H6          9.7750    2.6590   -3.2920 hc        1 MOL      0.078648
     18 H7          8.3870    3.7290   -3.4820 hc        1 MOL      0.078648
     19 N2         10.7770    2.8160   -0.0650 n         1 MOL     -0.559595
     20 C7         11.7780    1.9270    0.5350 c3        1 MOL      0.393755
     21 C8         11.2040    0.5100    0.8240 c         1 MOL      0.339401
     22 O5         11.9600   -0.2690    1.4230 o         1 MOL     -0.542154
     23 C9         12.4280    2.6270    1.8270 c3        1 MOL     -0.352588
     24 H8          9.8280    2.6990    0.2760 hn        1 MOL      0.277002
     25 H9         12.6340    1.7590   -0.1100 h1        1 MOL      0.025585
     26 H10        13.0590    3.4800    1.5690 hc        1 MOL      0.091309
     27 H11        11.6510    2.8770    2.5400 hc        1 MOL      0.091309
     28 H12        13.0510    1.8760    2.3170 hc        1 MOL      0.091309
     29 N3          9.9160    0.1080    0.4970 n         1 MOL     -0.247821
     30 C10         9.2650   -1.1810    0.9870 c3        1 MOL      0.213292
     31 C11         8.5780   -2.0640   -0.0930 c         1 MOL      0.325710
     32 O6          8.5360   -1.6200   -1.2380 o         1 MOL     -0.491455
     33 C12         8.1840   -1.0260    2.0970 c3        1 MOL     -0.249188
     34 C13         7.1130   -0.0660    1.6900 c         1 MOL      0.688848
     35 O7          6.9580    0.3730    0.5440 o         1 MOL     -0.680445
     36 O8          6.2360    0.1860    2.5200 o         1 MOL     -0.680445
     37 H13         9.2930    0.6900   -0.0450 hn        1 MOL      0.188157
     38 H14        10.0240   -1.7850    1.4750 h1        1 MOL     -0.003865
     39 H15         8.5960   -0.6260    3.0300 hc        1 MOL      0.058809
     40 H16         7.7270   -1.9700    2.4010 hc        1 MOL      0.058809
     41 N4          8.2600   -3.3090    0.2310 n         1 MOL     -0.341648
     42 C14         7.5760   -4.1330   -0.6700 c3        1 MOL     -0.008915
     43 C15         6.1100   -3.6820   -0.8200 c         1 MOL      0.608902
     44 O9          5.7740   -2.5250   -0.6180 o         1 MOL     -0.462421
     45 H17         8.3460   -3.6050    1.1880 hn        1 MOL      0.283255
     46 H18         7.6380   -5.1590   -0.2770 h1        1 MOL      0.051952
     47 H19         8.0900   -4.2150   -1.6320 h1        1 MOL      0.051952
     48 N5          5.2150   -4.6280   -1.1790 n         1 MOL     -0.747463
     49 C16         3.8520   -4.2260   -1.4010 c3        1 MOL      0.498744
     50 C17         3.0660   -3.9810   -0.0860 c         1 MOL      0.460297
     51 O10         3.3540   -4.6800    0.8670 o         1 MOL     -0.503472
     52 C18         3.1270   -5.1200   -2.4380 c3        1 MOL     -0.331155
     53 C19         2.0550   -4.4090   -3.1960 c         1 MOL      0.617096
     54 N6          0.9950   -5.1120   -3.3400 n         1 MOL     -0.774510
     55 O11         2.2110   -3.2630   -3.5920 o         1 MOL     -0.573360
     56 H20         5.5490   -5.5760   -1.2710 hn        1 MOL      0.342795
     57 H21         3.9860   -3.2750   -1.9170 h1        1 MOL     -0.069639
     58 H22         2.8060   -6.0970   -2.0940 hc        1 MOL      0.070517
     59 H23         3.8430   -5.3780   -3.2210 hc        1 MOL      0.070517
     60 H24         1.1200   -5.9900   -2.8670 hn        1 MOL      0.415658
     61 H25         0.2790   -4.6950   -3.9170 hn        1 MOL      0.415658
     62 N7          2.1070   -3.0310   -0.0060 n         1 MOL     -0.497484
     63 C20         1.0870   -2.8550    1.0800 c3        1 MOL      0.073651
     64 C21         1.6250   -2.2120    2.4090 c         1 MOL      0.432941
     65 O12         2.6660   -1.5810    2.4440 o         1 MOL     -0.458133
     66 H26         2.0490   -2.4050   -0.7900 hn        1 MOL      0.334862
     67 H27         0.5810   -3.7880    1.3130 h1        1 MOL      0.067054
     68 H28         0.3360   -2.1690    0.6810 h1        1 MOL      0.067054
     69 N8          0.9700   -2.4430    3.5620 n         1 MOL     -0.317076
     70 C22        -0.3130   -3.1350    3.8540 c3        1 MOL     -0.260390
     71 C23        -1.5670   -2.4290    3.3610 c         1 MOL      0.736054
     72 O13        -2.4250   -3.1600    2.9500 o         1 MOL     -0.599122
     73 C24        -0.3880   -3.3590    5.3530 c3        1 MOL      0.407705
     74 C25         0.8650   -4.0600    5.9390 c3        1 MOL     -0.497562
     75 O14        -0.5610   -2.1040    5.9570 oh        1 MOL     -0.574434
     76 H29         1.5090   -2.1880    4.3800 hn        1 MOL      0.244543
     77 H30        -0.2640   -4.1410    3.4370 h1        1 MOL      0.126260
     78 H31        -1.2660   -3.9790    5.5240 h1        1 MOL     -0.002115
     79 H32        -0.3400   -2.2170    6.8750 ho        1 MOL      0.377836
     80 H33         1.7620   -3.4720    5.7670 hc        1 MOL      0.132748
     81 H34         0.6860   -4.2670    6.9950 hc        1 MOL      0.132748
     82 H35         0.9390   -5.0320    5.4510 hc        1 MOL      0.132748
     83 N9         -1.6760   -1.1260    3.2120 n         1 MOL     -0.552370
     84 C26        -2.8300   -0.3580    2.6310 c3        1 MOL      0.009118
     85 C27        -2.7580   -0.0870    1.0860 c         1 MOL      0.748952
     86 O15        -1.8150    0.4860    0.5960 o         1 MOL     -0.584081
     87 C28        -3.2080    0.9480    3.3990 c3        1 MOL      0.084736
     88 C29        -2.9790    0.9200    4.9430 c3        1 MOL     -0.259806
     89 C30        -4.6630    1.3370    3.0600 c3        1 MOL     -0.014714
     90 C31        -4.0580    0.1140    5.7750 c3        1 MOL      0.102110
     91 H36        -0.9250   -0.5030    3.4990 hn        1 MOL      0.284811
     92 H37        -3.6670   -1.0420    2.7620 h1        1 MOL      0.118741
     93 H38        -2.5710    1.7500    3.0060 hc        1 MOL      0.004526
     94 H39        -3.0950    1.9330    5.3270 hc        1 MOL      0.086489
     95 H40        -1.9690    0.5650    5.1310 hc        1 MOL      0.086489
     96 H41        -4.7560    1.5340    1.9900 hc        1 MOL      0.023983
     97 H42        -5.3530    0.5050    3.2280 hc        1 MOL      0.023983
     98 H43        -4.8950    2.2450    3.6250 hc        1 MOL      0.023983
     99 H44        -5.1050    0.4220    5.6910 hc        1 MOL     -0.029984
    100 H45        -3.9910   -0.9420    5.5290 hc        1 MOL     -0.029984
    101 H46        -3.7190    0.1290    6.8160 hc        1 MOL     -0.029984
    102 N10        -3.8190   -0.3200    0.2450 n         1 MOL     -0.704490
    103 C32        -4.9380   -1.2550    0.4090 c3        1 MOL      0.410132
    104 C33        -6.2320   -0.7470   -0.2520 c         1 MOL      0.376291
    105 O16        -6.1470    0.2270   -1.0190 o         1 MOL     -0.478174
    106 C34        -4.5560   -2.6960   -0.0450 c3        1 MOL     -0.276118
    107 C35        -3.7910   -2.7980   -1.3760 c         1 MOL      0.673665
    108 O17        -2.8520   -3.5860   -1.5940 o         1 MOL     -0.705098
    109 O18        -4.0910   -2.0080   -2.2960 o         1 MOL     -0.705098
    110 H47        -3.6150   -0.2080   -0.7430 hn        1 MOL      0.359524
    111 H48        -5.1530   -1.3050    1.4740 h1        1 MOL     -0.042581
    112 H49        -5.5170   -3.2170   -0.0330 hc        1 MOL      0.022285
    113 H50        -4.0050   -3.2960    0.6660 hc        1 MOL      0.022285
    114 N11        -7.4550   -1.3350   -0.1280 n         1 MOL     -0.540688
    115 C36        -8.7340   -1.0520   -0.8630 c3        1 MOL      0.590544
    116 C37        -9.7810   -0.4940    0.1370 c         1 MOL      0.249245
    117 O19        -9.8780   -1.0400    1.2380 o         1 MOL     -0.484131
    118 C38        -9.1390   -2.3750   -1.3670 c3        1 MOL     -0.292788
    119 C39       -10.4080   -2.4100   -2.2080 ca        1 MOL      0.125448
    120 C40       -10.2590   -2.0250   -3.5250 ca        1 MOL     -0.170468
    121 C41       -11.6860   -2.6360   -1.6810 ca        1 MOL     -0.170468
    122 C42       -11.3510   -1.8470   -4.3730 ca        1 MOL     -0.124534
    123 C43       -12.8110   -2.2600   -2.4750 ca        1 MOL     -0.124534
    124 C44       -12.6100   -1.8310   -3.7710 ca        1 MOL     -0.115825
    125 H51        -7.5120   -2.0250    0.6100 hn        1 MOL      0.264665
    126 H52        -8.4790   -0.3850   -1.6890 h1        1 MOL      0.006250
    127 H53        -9.1770   -3.0390   -0.4990 hc        1 MOL      0.074506
    128 H54        -8.3310   -2.7130   -2.0170 hc        1 MOL      0.074506
    129 H55        -9.2560   -2.0090   -3.9260 ha        1 MOL      0.131308
    130 H56       -11.8670   -3.0010   -0.6850 ha        1 MOL      0.131308
    131 H57       -11.2470   -1.5630   -5.4120 ha        1 MOL      0.113361
    132 H58       -13.8120   -2.1930   -2.0820 ha        1 MOL      0.113361
    133 H59       -13.4240   -1.6200   -4.4500 ha        1 MOL      0.087015
    134 N12       -10.5220    0.6080   -0.2730 n         1 MOL     -0.157094
    135 C45       -10.4720    1.3060   -1.6290 c3        1 MOL      0.141121
    136 C46        -9.2000    2.1990   -1.6340 c         1 MOL      0.367965
    137 O20        -8.3900    2.1130   -2.5710 o         1 MOL     -0.506024
    138 C47       -11.7300    2.1200   -1.7210 c3        1 MOL      0.113267
    139 C48       -12.7960    1.4730   -0.7680 c3        1 MOL     -0.052685
    140 C49       -11.8280    0.9440    0.3240 c3        1 MOL     -0.050558
    141 H60       -10.4250    0.5410   -2.3980 h1        1 MOL     -0.002843
    142 H61       -11.4720    3.1360   -1.4220 hc        1 MOL     -0.009325
    143 H62       -12.1040    2.2630   -2.7270 hc        1 MOL     -0.009325
    144 H63       -13.5140    2.2240   -0.4290 hc        1 MOL      0.009309
    145 H64       -13.3300    0.6800   -1.2940 hc        1 MOL      0.009309
    146 H65       -11.7390    1.7400    1.0510 h1        1 MOL      0.063669
    147 H66       -12.3030    0.1300    0.8660 h1        1 MOL      0.063669
    148 N13        -9.0140    3.0720   -0.5780 n         1 MOL     -0.507278
    149 C50        -7.7540    3.7450   -0.2830 c3        1 MOL      0.293541
    150 C51        -7.6600    5.0880   -1.0640 c         1 MOL      0.429336
    151 O21        -8.1870    6.0400   -0.5290 o         1 MOL     -0.538504
    152 C52        -7.7520    3.9290    1.2380 c3        1 MOL      0.000749
    153 C53        -6.4660    4.6040    1.8130 c3        1 MOL     -0.036626
    154 C54        -6.5650    5.1830    3.2120 c         1 MOL      0.704081
    155 O22        -7.3680    4.6630    3.9880 o         1 MOL     -0.725313
    156 O23        -5.7050    6.0120    3.6640 o         1 MOL     -0.725313
    157 H67        -9.7830    3.1360    0.0700 hn        1 MOL      0.270796
    158 H68        -6.8590    3.1890   -0.5450 h1        1 MOL      0.033713
    159 H69        -8.0050    3.0250    1.7780 hc        1 MOL     -0.009619
    160 H70        -8.5370    4.6290    1.5240 hc        1 MOL     -0.009619
    161 H71        -6.2020    5.4230    1.1380 hc        1 MOL     -0.044616
    162 H72        -5.6040    3.9440    1.6850 hc        1 MOL     -0.044616
    163 N14        -6.9780    5.2540   -2.2800 n         1 MOL     -0.361798
    164 C55        -6.2370    4.2290   -3.0000 c3        1 MOL     -0.038932
    165 H73        -6.4850    4.2800   -4.0610 h1        1 MOL      0.055667
    166 H74        -5.1680    4.3930   -2.8690 h1        1 MOL      0.055667
    167 H75        -6.5050    3.2460   -2.6120 h1        1 MOL      0.055667
    168 H76        -7.2430    6.1340   -2.7120 hn        1 MOL      0.243230
    169 Ca1         6.3280    0.0000   -1.8330 Ca        1 MOL      1.800197
    170 O24         6.1110    0.8640   -4.3540 oh        1 MOL     -0.829475
    171 H77         5.2910    0.7700   -4.8310 ho        1 MOL      0.401821
    172 H78         6.7630    1.0920   -5.0280 ho        1 MOL      0.401821
    173 O25         6.5180   -1.9460   -3.6010 oh        1 MOL     -0.829475
    174 H79         5.8260   -2.3880   -4.0980 ho        1 MOL      0.401821
    175 H80         7.2890   -1.9920   -4.1760 ho        1 MOL      0.401821
    176 O26         3.7990   -1.0020   -2.6520 oh        1 MOL     -0.829475
    177 H81         2.9880   -0.6330   -2.2930 ho        1 MOL      0.401821
    178 H82         3.5080   -1.6130   -3.3210 ho        1 MOL      0.401821
    179 O27         4.1110    0.0610   -0.0370 oh        1 MOL     -0.829475
    180 H83         3.1840    0.2640   -0.0550 ho        1 MOL      0.401821
    181 H84         4.1860   -0.6550    0.5910 ho        1 MOL      0.401821
@<TRIPOS>BOND
     1    1    2 1   
     2    1    4 1   
     3    1    5 1   
     4    1    6 1   
     5    2    3 2   
     6    2    7 1   
     7    7    8 1   
     8    7   15 1   
     9    8    9 1   
    10    8   11 1   
    11    8   16 1   
    12    9   10 2   
    13    9   19 1   
    14   11   12 1   
    15   11   17 1   
    16   11   18 1   
    17   12   13 1   
    18   12   14 1   
    19   19   20 1   
    20   19   24 1   
    21   20   21 1   
    22   20   23 1   
    23   20   25 1   
    24   21   22 2   
    25   21   29 1   
    26   23   26 1   
    27   23   27 1   
    28   23   28 1   
    29   29   30 1   
    30   29   37 1   
    31   30   31 1   
    32   30   33 1   
    33   30   38 1   
    34   31   32 2   
    35   31   41 1   
    36   33   34 1   
    37   33   39 1   
    38   33   40 1   
    39   34   35 1   
    40   34   36 1   
    41   41   42 1   
    42   41   45 1   
    43   42   43 1   
    44   42   46 1   
    45   42   47 1   
    46   43   44 2   
    47   43   48 1   
    48   48   49 1   
    49   48   56 1   
    50   49   50 1   
    51   49   52 1   
    52   49   57 1   
    53   50   51 2   
    54   50   62 1   
    55   52   53 1   
    56   52   58 1   
    57   52   59 1   
    58   53   54 1   
    59   53   55 2   
    60   54   60 1   
    61   54   61 1   
    62   62   63 1   
    63   62   66 1   
    64   63   64 1   
    65   63   67 1   
    66   63   68 1   
    67   64   65 2   
    68   64   69 1   
    69   69   70 1   
    70   69   76 1   
    71   70   71 1   
    72   70   73 1   
    73   70   77 1   
    74   71   72 2   
    75   71   83 1   
    76   73   74 1   
    77   73   75 1   
    78   73   78 1   
    79   74   80 1   
    80   74   81 1   
    81   74   82 1   
    82   75   79 1   
    83   83   84 1   
    84   83   91 1   
    85   84   85 1   
    86   84   87 1   
    87   84   92 1   
    88   85   86 2   
    89   85  102 1   
    90   87   88 1   
    91   87   89 1   
    92   87   93 1   
    93   88   90 1   
    94   88   94 1   
    95   88   95 1   
    96   89   96 1   
    97   89   97 1   
    98   89   98 1   
    99   90   99 1   
   100   90  100 1   
   101   90  101 1   
   102  102  103 1   
   103  102  110 1   
   104  103  104 1   
   105  103  106 1   
   106  103  111 1   
   107  104  105 2   
   108  104  114 1   
   109  106  107 1   
   110  106  112 1   
   111  106  113 1   
   112  107  108 1   
   113  107  109 1   
   114  114  115 1   
   115  114  125 1   
   116  115  116 1   
   117  115  118 1   
   118  115  126 1   
   119  116  117 2   
   120  116  134 1   
   121  118  119 1   
   122  118  127 1   
   123  118  128 1   
   124  119  120 ar  
   125  119  121 ar  
   126  120  122 ar  
   127  120  129 1   
   128  121  123 ar  
   129  121  130 1   
   130  122  124 ar  
   131  122  131 1   
   132  123  124 ar  
   133  123  132 1   
   134  124  133 1   
   135  134  135 1   
   136  134  140 1   
   137  135  136 1   
   138  135  138 1   
   139  135  141 1   
   140  136  137 2   
   141  136  148 1   
   142  138  139 1   
   143  138  142 1   
   144  138  143 1   
   145  139  140 1   
   146  139  144 1   
   147  139  145 1   
   148  140  146 1   
   149  140  147 1   
   150  148  149 1   
   151  148  157 1   
   152  149  150 1   
   153  149  152 1   
   154  149  158 1   
   155  150  151 2   
   156  150  163 1   
   157  152  153 1   
   158  152  159 1   
   159  152  160 1   
   160  153  154 1   
   161  153  161 1   
   162  153  162 1   
   163  154  155 1   
   164  154  156 1   
   165  163  164 1   
   166  163  168 1   
   167  164  165 1   
   168  164  166 1   
   169  164  167 1   
   170  170  171 1   
   171  170  172 1   
   172  173  174 1   
   173  173  175 1   
   174  176  177 1   
   175  176  178 1   
   176  179  180 1   
   177  179  181 1   
@<TRIPOS>SUBSTRUCTURE
     1 MOL         1 TEMP              0 ****  ****    0 ROOT
