@<TRIPOS>MOLECULE
MOL
  192   187     1     0     0
SMALL
resp


@<TRIPOS>ATOM
      1 C1         -5.9730   -3.1860    4.6410 c3        1 MOL     -0.294735
      2 C2         -5.5440   -2.5560    3.3060 c         1 MOL      0.716562
      3 O1         -5.1120   -3.2160    2.3210 o         1 MOL     -0.588884
      4 H1         -6.2480   -4.2280    4.4790 hc        1 MOL      0.080595
      5 H2         -5.1470   -3.1340    5.3510 hc        1 MOL      0.080595
      6 H3         -6.8300   -2.6430    5.0410 hc        1 MOL      0.080595
      7 N1         -5.6610   -1.2070    3.2140 n         1 MOL     -0.639489
      8 C3         -5.1770   -0.4010    2.0600 c3        1 MOL      0.520060
      9 C4         -3.6470   -0.2260    1.8940 c         1 MOL      0.079826
     10 O2         -3.1680    0.2420    0.8460 o         1 MOL     -0.370008
     11 C5         -5.7670    1.0050    2.0950 c3        1 MOL     -0.338403
     12 C6         -5.8550    1.6190    3.4560 c         1 MOL      0.711854
     13 O3         -5.1990    2.6570    3.6740 o         1 MOL     -0.708718
     14 O4         -6.5800    1.1570    4.3800 o         1 MOL     -0.708718
     15 H4         -5.8540   -0.7170    4.0650 hn        1 MOL      0.304765
     16 H5         -5.5340   -0.8690    1.1310 h1        1 MOL     -0.037134
     17 H6         -6.7840    0.9800    1.7010 hc        1 MOL      0.053573
     18 H7         -5.1680    1.6120    1.4240 hc        1 MOL      0.053573
     19 N2         -2.8570   -0.6830    2.8600 n         1 MOL     -0.060613
     20 C7         -1.3600   -0.7010    2.8420 c3        1 MOL      0.065998
     21 C8         -0.8280   -2.0720    2.5200 c         1 MOL      0.444204
     22 O5         -1.3230   -3.0100    3.0940 o         1 MOL     -0.546379
     23 C9         -0.7880   -0.2780    4.1320 c3        1 MOL      0.091370
     24 C10        -0.9520    1.1530    4.4860 c3        1 MOL     -0.310907
     25 C11        -2.2200    1.5350    5.2560 c3        1 MOL      0.042748
     26 C12        -2.1390    3.0360    5.4570 c3        1 MOL      0.066573
     27 N3         -3.4600    3.5400    5.9030 n4        1 MOL     -0.267037
     28 H8         -3.2400   -1.2960    3.5670 hn        1 MOL      0.162030
     29 H9         -1.0270    0.0390    2.1240 h1        1 MOL      0.087875
     30 H10         0.2750   -0.5030    4.0240 hc        1 MOL      0.019882
     31 H11        -1.1270   -0.9040    4.9600 hc        1 MOL      0.019882
     32 H12        -0.7750    1.7230    3.5740 hc        1 MOL      0.098255
     33 H13        -0.1710    1.3690    5.2010 hc        1 MOL      0.098255
     34 H14        -2.3230    0.9630    6.1710 hc        1 MOL      0.019910
     35 H15        -3.0870    1.1960    4.6960 hc        1 MOL      0.019910
     36 H16        -1.9430    3.4730    4.4840 hx        1 MOL      0.051238
     37 H17        -1.3910    3.2530    6.2120 hx        1 MOL      0.051238
     38 H18        -4.1210    3.5820    5.1380 hn        1 MOL      0.278995
     39 H19        -3.8100    2.9110    6.6020 hn        1 MOL      0.278995
     40 H20        -3.3390    4.4920    6.2340 hn        1 MOL      0.278995
     41 N4          0.1690   -2.3150    1.7440 n         1 MOL     -0.507663
     42 C13         0.8910   -1.4110    0.7940 c3        1 MOL      0.283997
     43 C14         1.5710   -0.1560    1.4660 c         1 MOL      0.279889
     44 O6          0.9500    0.8780    1.6670 o         1 MOL     -0.508857
     45 C15         0.0440   -1.0870   -0.4480 c3        1 MOL     -0.215693
     46 C16        -0.3810   -2.2580   -1.2780 c         1 MOL      0.756454
     47 O7         -0.3290   -3.4140   -0.8290 o         1 MOL     -0.768712
     48 O8         -0.4910   -2.1450   -2.4930 o         1 MOL     -0.768712
     49 H21         0.2420   -3.2960    1.5160 hn        1 MOL      0.352707
     50 H22         1.6680   -2.0950    0.4750 h1        1 MOL      0.049614
     51 H23         0.5380   -0.3470   -1.0860 hc        1 MOL      0.051511
     52 H24        -0.8320   -0.4860   -0.1970 hc        1 MOL      0.051511
     53 N5          2.7420   -0.2720    2.0640 n         1 MOL     -0.323914
     54 C17         3.6260   -1.4470    2.0770 c3        1 MOL      0.052756
     55 C18         4.3160   -1.6910    3.4160 c         1 MOL      0.600354
     56 O9          4.0140   -0.9590    4.3990 o         1 MOL     -0.569635
     57 H25         2.9300    0.5170    2.6740 hn        1 MOL      0.308648
     58 H26         4.4010   -1.2690    1.3340 h1        1 MOL      0.009813
     59 H27         3.0960   -2.3510    1.8100 h1        1 MOL      0.009813
     60 N6          5.2530   -2.6600    3.4530 n         1 MOL     -0.519299
     61 C19         5.6070   -3.6060    2.3320 c3        1 MOL      0.004440
     62 C20         6.6810   -2.9940    1.3610 c         1 MOL      0.498650
     63 O10         7.5320   -2.2060    1.8530 o         1 MOL     -0.436073
     64 C21         6.1180   -4.8890    2.9460 c3        1 MOL     -0.157888
     65 C22         7.3320   -4.7260    3.8620 c         1 MOL      0.716924
     66 O11         8.4300   -5.1300    3.3720 o         1 MOL     -0.653577
     67 O12         7.1970   -4.2390    4.9830 o         1 MOL     -0.653577
     68 H28         5.9020   -2.5850    4.2210 hn        1 MOL      0.341667
     69 H29         4.7110   -3.9250    1.8020 h1        1 MOL      0.068210
     70 H30         6.3490   -5.6390    2.1790 hc        1 MOL      0.019480
     71 H31         5.3110   -5.3180    3.5320 hc        1 MOL      0.019480
     72 N7          6.6350   -3.3270    0.0480 n         1 MOL     -0.374617
     73 C23         7.5830   -2.8540   -0.9520 c3        1 MOL     -0.144765
     74 C24         7.1230   -1.5890   -1.7090 c         1 MOL      0.492584
     75 O13         8.0040   -0.8140   -2.1820 o         1 MOL     -0.513268
     76 H32         6.0290   -4.0960   -0.1940 hn        1 MOL      0.258249
     77 H33         7.9220   -3.5810   -1.6860 h1        1 MOL      0.129556
     78 H34         8.4580   -2.5200   -0.3880 h1        1 MOL      0.129556
     79 N8          5.7460   -1.3510   -1.7070 n         1 MOL     -0.499764
     80 C25         5.2550   -0.1170   -2.2430 c3        1 MOL      0.109872
     81 C26         5.4560    0.8590   -1.0710 c         1 MOL      0.727342
     82 O14         5.2970    0.5670    0.1080 o         1 MOL     -0.521187
     83 C27         3.8030   -0.1110   -2.6620 c3        1 MOL      0.491709
     84 C28         3.5520   -1.0490   -3.8660 c3        1 MOL     -0.390363
     85 O15         3.3920    1.1630   -3.0420 oh        1 MOL     -0.607210
     86 H35         5.1110   -1.8930   -1.1390 hn        1 MOL      0.223284
     87 H36         5.8700    0.0770   -3.1210 h1        1 MOL      0.046305
     88 H37         3.2610   -0.3800   -1.7630 h1        1 MOL     -0.099165
     89 H38         2.5420    1.3340   -2.6260 ho        1 MOL      0.352166
     90 H39         3.6510   -0.5120   -4.8100 hc        1 MOL      0.091427
     91 H40         4.1960   -1.9280   -3.8000 hc        1 MOL      0.091427
     92 H41         2.6000   -1.5500   -3.7360 hc        1 MOL      0.091427
     93 N9          5.7750    2.1120   -1.4270 n         1 MOL     -0.623108
     94 C29         5.9910    3.2660   -0.4790 c3        1 MOL     -0.050344
     95 C30         4.7620    4.1090   -0.3310 c         1 MOL      0.363809
     96 O16         4.8210    5.1230    0.4290 o         1 MOL     -0.543343
     97 C31         7.2010    4.1230   -0.9410 c3        1 MOL      0.105062
     98 C32         6.8960    5.0640   -2.0780 c3        1 MOL      0.232292
     99 C33         8.4510    3.1450   -0.9860 c3        1 MOL     -0.017661
    100 C34         8.0770    5.9540   -2.4490 c3        1 MOL     -0.198431
    101 H42         5.6540    2.2860   -2.4110 hn        1 MOL      0.282414
    102 H43         6.2400    2.9060    0.5190 h1        1 MOL      0.163152
    103 H44         7.3800    4.8470   -0.1450 hc        1 MOL     -0.015672
    104 H45         6.0340    5.7170   -1.9690 hc        1 MOL     -0.046689
    105 H46         6.6150    4.5410   -2.9970 hc        1 MOL     -0.046689
    106 H47         9.3490    3.7260   -1.2180 hc        1 MOL      0.013072
    107 H48         8.6010    2.6080   -0.0610 hc        1 MOL      0.013072
    108 H49         8.2600    2.4890   -1.8340 hc        1 MOL      0.013072
    109 H50         7.7260    6.7870   -3.0570 hc        1 MOL      0.036647
    110 H51         8.5260    6.3450   -1.5380 hc        1 MOL      0.036647
    111 H52         8.7640    5.2920   -2.9840 hc        1 MOL      0.036647
    112 N10         3.6650    3.7650   -0.9130 n         1 MOL     -0.132466
    113 C35         2.3540    4.3190   -0.4570 c3        1 MOL      0.059696
    114 C36         1.1330    3.3900   -0.6560 c         1 MOL      0.321882
    115 O17         1.2250    2.4010   -1.3640 o         1 MOL     -0.306115
    116 C37         1.9690    5.6220   -1.2430 c3        1 MOL      0.113632
    117 C38         2.0440    5.5370   -2.7630 c3        1 MOL      0.068258
    118 O18         2.7470    6.7650   -0.9300 oh        1 MOL     -0.573045
    119 H53         3.6760    2.9160   -1.4600 hn        1 MOL      0.116591
    120 H54         2.4280    4.6600    0.5670 h1        1 MOL      0.079822
    121 H55         0.9500    5.9300   -1.0080 h1        1 MOL      0.103182
    122 H56         3.5790    6.3720   -0.6780 ho        1 MOL      0.357865
    123 H57         1.2470    4.8810   -3.1200 hc        1 MOL     -0.017777
    124 H58         1.9610    6.5210   -3.2380 hc        1 MOL     -0.017777
    125 H59         2.9150    4.9980   -3.1320 hc        1 MOL     -0.017777
    126 N11         0.0000    3.7600    0.0100 n         1 MOL     -0.410795
    127 C39        -1.3050    3.0920   -0.0610 c3        1 MOL      0.111070
    128 C40        -1.9100    2.7690   -1.4960 c         1 MOL      0.232089
    129 O19        -1.4850    3.3060   -2.5120 o         1 MOL     -0.466627
    130 C41        -2.3850    3.9810    0.6510 c3        1 MOL      0.152252
    131 C42        -2.4490    5.2960   -0.0870 c3        1 MOL     -0.762486
    132 O20        -1.9930    4.2010    1.9480 oh        1 MOL     -0.567021
    133 H60         0.0270    4.6900    0.4030 hn        1 MOL      0.278305
    134 H61        -1.1960    2.1190    0.4250 h1        1 MOL      0.116861
    135 H62        -3.3660    3.5100    0.7000 h1        1 MOL      0.105652
    136 H63        -2.5940    4.8090    2.3800 ho        1 MOL      0.410111
    137 H64        -3.4330    5.6400    0.2400 hc        1 MOL      0.205739
    138 H65        -1.6470    5.9970    0.1640 hc        1 MOL      0.205739
    139 H66        -2.3930    5.1750   -1.1720 hc        1 MOL      0.205739
    140 N12        -3.0150    2.0010   -1.5030 n         1 MOL     -0.052578
    141 C43        -3.8240    1.6350   -2.7120 c3        1 MOL     -0.083492
    142 C44        -4.3830    0.1590   -2.9100 c         1 MOL      0.597873
    143 O21        -4.9580   -0.1490   -3.9510 o         1 MOL     -0.590540
    144 C45        -4.9050    2.7920   -2.8490 c3        1 MOL     -0.185110
    145 C46        -5.8820    2.7000   -1.6490 c3        1 MOL     -0.016333
    146 C47        -7.0580    3.6460   -1.8040 c3        1 MOL      0.030838
    147 C48        -7.9440    3.7580   -0.5830 c3        1 MOL      0.125942
    148 N13        -9.0420    4.6690   -0.8070 n4        1 MOL     -0.322420
    149 H67        -3.1840    1.5930   -0.6000 hn        1 MOL      0.102344
    150 H68        -3.1300    1.6900   -3.5540 h1        1 MOL      0.115190
    151 H69        -5.4670    2.6800   -3.7760 hc        1 MOL      0.084367
    152 H70        -4.3620    3.7400   -2.7780 hc        1 MOL      0.084367
    153 H71        -5.5150    2.8780   -0.6360 hc        1 MOL      0.042799
    154 H72        -6.3510    1.7240   -1.7470 hc        1 MOL      0.042799
    155 H73        -7.6930    3.3730   -2.6440 hc        1 MOL     -0.001815
    156 H74        -6.6930    4.6620   -1.9710 hc        1 MOL     -0.001815
    157 H75        -7.4030    4.2180    0.2500 hx        1 MOL      0.059223
    158 H76        -8.3400    2.7610   -0.3630 hx        1 MOL      0.059223
    159 H77        -8.7900    5.6480   -0.9180 hn        1 MOL      0.272298
    160 H78        -9.7270    4.4090   -1.5130 hn        1 MOL      0.272298
    161 H79        -9.6530    4.6790   -0.0070 hn        1 MOL      0.272298
    162 N14        -4.1900   -0.7530   -2.0100 n         1 MOL     -0.258174
    163 C49        -4.7440   -2.1460   -2.0560 c3        1 MOL     -0.033093
    164 C50        -6.1680   -2.1760   -1.6230 c         1 MOL      0.426041
    165 O22        -6.6350   -1.4860   -0.7310 o         1 MOL     -0.482651
    166 C51        -3.9860   -3.0460   -1.0690 c3        1 MOL      0.472176
    167 C52        -4.3530   -4.5120   -1.1400 c3        1 MOL     -0.699229
    168 C53        -4.0760   -5.1140   -2.5390 c         1 MOL      0.942624
    169 O23        -2.9210   -5.3010   -2.9060 o         1 MOL     -0.831088
    170 O24        -5.0280   -5.2780   -3.3540 o         1 MOL     -0.831088
    171 H80        -3.6140   -0.4590   -1.2290 hn        1 MOL      0.045331
    172 H81        -4.7250   -2.5060   -3.0840 h1        1 MOL      0.001999
    173 H82        -4.2610   -2.7320   -0.0560 hc        1 MOL     -0.039592
    174 H83        -2.9150   -2.9670   -1.2300 hc        1 MOL     -0.039592
    175 H84        -5.4150   -4.6170   -0.9280 hc        1 MOL      0.177015
    176 H85        -3.8070   -5.0450   -0.3680 hc        1 MOL      0.177015
    177 N15        -6.8990   -3.0140   -2.3760 n         1 MOL     -0.361330
    178 C54        -8.3830   -3.1560   -2.3360 c3        1 MOL     -0.044268
    179 H86        -8.6620   -3.8320   -1.5280 h1        1 MOL      0.058048
    180 H87        -8.8380   -2.1800   -2.1640 h1        1 MOL      0.058048
    181 H88        -8.7360   -3.5590   -3.2840 h1        1 MOL      0.058048
    182 H89        -6.4160   -3.4670   -3.1410 hn        1 MOL      0.390941
    183 Ca1        -0.6340   -4.5100   -3.5520 Ca        1 MOL      1.713512
    184 O25         1.7160   -4.8720   -2.6300 oh        1 MOL     -0.845967
    185 H90         2.0630   -5.2690   -1.8360 ho        1 MOL      0.423116
    186 H91         2.3560   -5.0810   -3.3120 ho        1 MOL      0.423116
    187 O26        -2.3620   -3.0740   -5.3870 oh        1 MOL     -0.845967
    188 H92        -3.2200   -3.4750   -5.2580 ho        1 MOL      0.423116
    189 H93        -2.2920   -2.9240   -6.3300 ho        1 MOL      0.423116
    190 O27         0.9120   -3.1170   -5.1990 oh        1 MOL     -0.845967
    191 H94         0.7470   -3.0510   -6.1430 ho        1 MOL      0.423116
    192 H95         1.1560   -2.2320   -4.9340 ho        1 MOL      0.423116
@<TRIPOS>BOND
     1    1    2 1   
     2    1    4 1   
     3    1    5 1   
     4    1    6 1   
     5    2    3 2   
     6    2    7 1   
     7    7    8 1   
     8    7   15 1   
     9    8    9 1   
    10    8   11 1   
    11    8   16 1   
    12    9   10 2   
    13    9   19 1   
    14   11   12 1   
    15   11   17 1   
    16   11   18 1   
    17   12   13 1   
    18   12   14 1   
    19   19   20 1   
    20   19   28 1   
    21   20   21 1   
    22   20   23 1   
    23   20   29 1   
    24   21   22 2   
    25   21   41 1   
    26   23   24 1   
    27   23   30 1   
    28   23   31 1   
    29   24   25 1   
    30   24   32 1   
    31   24   33 1   
    32   25   26 1   
    33   25   34 1   
    34   25   35 1   
    35   26   27 1   
    36   26   36 1   
    37   26   37 1   
    38   27   38 1   
    39   27   39 1   
    40   27   40 1   
    41   41   42 1   
    42   41   49 1   
    43   42   43 1   
    44   42   45 1   
    45   42   50 1   
    46   43   44 2   
    47   43   53 1   
    48   45   46 1   
    49   45   51 1   
    50   45   52 1   
    51   46   47 1   
    52   46   48 1   
    53   53   54 1   
    54   53   57 1   
    55   54   55 1   
    56   54   58 1   
    57   54   59 1   
    58   55   56 2   
    59   55   60 1   
    60   60   61 1   
    61   60   68 1   
    62   61   62 1   
    63   61   64 1   
    64   61   69 1   
    65   62   63 2   
    66   62   72 1   
    67   64   65 1   
    68   64   70 1   
    69   64   71 1   
    70   65   66 1   
    71   65   67 1   
    72   72   73 1   
    73   72   76 1   
    74   73   74 1   
    75   73   77 1   
    76   73   78 1   
    77   74   75 2   
    78   74   79 1   
    79   79   80 1   
    80   79   86 1   
    81   80   81 1   
    82   80   83 1   
    83   80   87 1   
    84   81   82 2   
    85   81   93 1   
    86   83   84 1   
    87   83   85 1   
    88   83   88 1   
    89   84   90 1   
    90   84   91 1   
    91   84   92 1   
    92   85   89 1   
    93   93   94 1   
    94   93  101 1   
    95   94   95 1   
    96   94   97 1   
    97   94  102 1   
    98   95   96 2   
    99   95  112 1   
   100   97   98 1   
   101   97   99 1   
   102   97  103 1   
   103   98  100 1   
   104   98  104 1   
   105   98  105 1   
   106   99  106 1   
   107   99  107 1   
   108   99  108 1   
   109  100  109 1   
   110  100  110 1   
   111  100  111 1   
   112  112  113 1   
   113  112  119 1   
   114  113  114 1   
   115  113  116 1   
   116  113  120 1   
   117  114  115 2   
   118  114  126 1   
   119  116  117 1   
   120  116  118 1   
   121  116  121 1   
   122  117  123 1   
   123  117  124 1   
   124  117  125 1   
   125  118  122 1   
   126  126  127 1   
   127  126  133 1   
   128  127  128 1   
   129  127  130 1   
   130  127  134 1   
   131  128  129 2   
   132  128  140 1   
   133  130  131 1   
   134  130  132 1   
   135  130  135 1   
   136  131  137 1   
   137  131  138 1   
   138  131  139 1   
   139  132  136 1   
   140  140  141 1   
   141  140  149 1   
   142  141  142 1   
   143  141  144 1   
   144  141  150 1   
   145  142  143 2   
   146  142  162 1   
   147  144  145 1   
   148  144  151 1   
   149  144  152 1   
   150  145  146 1   
   151  145  153 1   
   152  145  154 1   
   153  146  147 1   
   154  146  155 1   
   155  146  156 1   
   156  147  148 1   
   157  147  157 1   
   158  147  158 1   
   159  148  159 1   
   160  148  160 1   
   161  148  161 1   
   162  162  163 1   
   163  162  171 1   
   164  163  164 1   
   165  163  166 1   
   166  163  172 1   
   167  164  165 2   
   168  164  177 1   
   169  166  167 1   
   170  166  173 1   
   171  166  174 1   
   172  167  168 1   
   173  167  175 1   
   174  167  176 1   
   175  168  169 1   
   176  168  170 1   
   177  177  178 1   
   178  177  182 1   
   179  178  179 1   
   180  178  180 1   
   181  178  181 1   
   182  184  185 1   
   183  184  186 1   
   184  187  188 1   
   185  187  189 1   
   186  190  191 1   
   187  190  192 1   
@<TRIPOS>SUBSTRUCTURE
     1 MOL         1 TEMP              0 ****  ****    0 ROOT
