@<TRIPOS>MOLECULE
MOL
  182   178     1     0     0
SMALL
resp


@<TRIPOS>ATOM
      1 C1         -3.3940   -3.2420    6.5200 c3        1 MOL     -0.375041
      2 C2         -3.0540   -2.9280    5.0380 c         1 MOL      0.703292
      3 O1         -3.8510   -2.6290    4.1450 o         1 MOL     -0.601858
      4 H1         -3.4460   -4.3220    6.6590 hc        1 MOL      0.104175
      5 H2         -2.6200   -2.8300    7.1670 hc        1 MOL      0.104175
      6 H3         -4.3570   -2.7970    6.7740 hc        1 MOL      0.104175
      7 N1         -1.7560   -3.0180    4.7510 n         1 MOL     -0.601422
      8 C3         -1.2420   -2.7760    3.3610 c3        1 MOL      0.109334
      9 C4         -1.7410   -3.8010    2.3810 c         1 MOL      0.523101
     10 O2         -1.3830   -4.9870    2.3920 o         1 MOL     -0.540470
     11 C5          0.1970   -2.6480    3.4450 c3        1 MOL      0.010291
     12 C6          0.8420   -2.2260    2.1250 c         1 MOL      0.491212
     13 O3          2.0790   -1.9750    1.9760 o         1 MOL     -0.693631
     14 O4          0.1570   -2.0700    1.0850 o         1 MOL     -0.693631
     15 H4         -1.0590   -3.2200    5.4450 hn        1 MOL      0.312694
     16 H5         -1.6520   -1.8280    3.0170 h1        1 MOL      0.053163
     17 H6          0.6900   -3.5490    3.7930 hc        1 MOL      0.026265
     18 H7          0.5900   -1.8710    4.1070 hc        1 MOL      0.026265
     19 N2         -2.4990   -3.2790    1.3800 n         1 MOL     -0.270212
     20 C7         -3.0450   -4.0540    0.2310 c3        1 MOL      0.006179
     21 C8         -2.0910   -4.7930   -0.6960 c         1 MOL      0.463655
     22 O5         -2.5550   -5.6390   -1.4770 o         1 MOL     -0.586273
     23 C9         -3.8940   -3.0960   -0.5630 c3        1 MOL     -0.092255
     24 C10        -4.9960   -3.7420   -1.3420 c3        1 MOL      0.020006
     25 C11        -5.7690   -2.6690   -2.1660 c3        1 MOL      0.093923
     26 C12        -6.8880   -3.3700   -2.9540 c3        1 MOL     -0.121896
     27 N3         -8.0000   -4.0110   -2.2230 n4        1 MOL     -0.386798
     28 H8         -2.7660   -2.3170    1.5490 hn        1 MOL      0.230802
     29 H9         -3.7450   -4.8310    0.5420 h1        1 MOL      0.082158
     30 H10        -3.3300   -2.5110   -1.2890 hc        1 MOL      0.034543
     31 H11        -4.4630   -2.5350    0.1730 hc        1 MOL      0.034543
     32 H12        -5.6610   -4.3290   -0.7160 hc        1 MOL      0.017401
     33 H13        -4.6150   -4.4110   -2.1150 hc        1 MOL      0.017401
     34 H14        -5.1400   -2.1490   -2.8790 hc        1 MOL      0.010570
     35 H15        -6.1990   -1.8680   -1.5720 hc        1 MOL      0.010570
     36 H16        -6.3260   -4.0340   -3.6070 hx        1 MOL      0.119119
     37 H17        -7.3390   -2.6040   -3.5930 hx        1 MOL      0.119119
     38 H18        -8.3260   -3.4400   -1.4540 hn        1 MOL      0.344994
     39 H19        -8.7530   -4.0580   -2.8850 hn        1 MOL      0.344994
     40 H20        -7.7090   -4.9210   -1.9050 hn        1 MOL      0.344994
     41 N4         -0.8220   -4.5300   -0.6470 n         1 MOL     -0.249599
     42 C13         0.2000   -5.3360   -1.3640 c3        1 MOL      0.225438
     43 C14         1.4370   -5.8040   -0.4670 c         1 MOL      0.211510
     44 O6          1.9460   -6.9620   -0.4920 o         1 MOL     -0.487035
     45 C15         0.5030   -4.5850   -2.6770 c3        1 MOL     -0.333646
     46 C16         1.1620   -3.1780   -2.5270 c         1 MOL      0.754741
     47 O7          1.4580   -2.6600   -1.4040 o         1 MOL     -0.708585
     48 O8          1.3700   -2.4570   -3.5630 o         1 MOL     -0.708585
     49 H21        -0.5270   -3.7920   -0.0230 hn        1 MOL      0.158672
     50 H22        -0.3260   -6.2010   -1.7510 h1        1 MOL      0.082444
     51 H23        -0.3390   -4.4700   -3.3470 hc        1 MOL      0.104950
     52 H24         1.2950   -5.1420   -3.1710 hc        1 MOL      0.104950
     53 N5          1.7510   -5.0040    0.5320 n         1 MOL      0.105741
     54 C17         2.9310   -5.2070    1.3670 c3        1 MOL     -0.562819
     55 C18         4.2780   -4.7320    0.7400 c         1 MOL      0.611892
     56 O9          5.3530   -4.9180    1.3050 o         1 MOL     -0.572231
     57 H25         1.3200   -4.0910    0.4770 hn        1 MOL      0.073964
     58 H26         3.0010   -6.2690    1.5680 h1        1 MOL      0.218507
     59 H27         2.8550   -4.5180    2.2110 h1        1 MOL      0.218507
     60 N6          4.1330   -4.0490   -0.3720 n         1 MOL     -0.017113
     61 C19         5.2140   -3.4540   -1.1460 c3        1 MOL     -0.212530
     62 C20         5.3860   -1.8720   -0.9840 c         1 MOL      0.627270
     63 O10         4.4300   -1.1880   -0.5450 o         1 MOL     -0.592682
     64 C21         4.8450   -3.6270   -2.6760 c3        1 MOL     -0.181373
     65 C22         4.9480   -5.1010   -2.9830 c         1 MOL      0.663021
     66 N7          6.0880   -5.6600   -3.1310 n         1 MOL     -0.785357
     67 O11         3.8980   -5.7440   -3.1710 o         1 MOL     -0.533304
     68 H28         3.1900   -3.7450   -0.6010 hn        1 MOL      0.121745
     69 H29         6.2000   -3.8570   -0.9100 h1        1 MOL      0.062458
     70 H30         5.5290   -3.0830   -3.3390 hc        1 MOL      0.043526
     71 H31         3.8480   -3.2300   -2.8640 hc        1 MOL      0.043526
     72 H32         6.9260   -5.1870   -2.8230 hn        1 MOL      0.370202
     73 H33         6.1640   -6.5940   -3.4970 hn        1 MOL      0.370202
     74 N8          6.5590   -1.3350   -1.2720 n         1 MOL     -0.368207
     75 C23         6.6740    0.1330   -1.4920 c3        1 MOL     -0.244072
     76 C24         6.2890    0.9010   -0.2060 c         1 MOL      0.572151
     77 O12         6.5070    0.4920    0.9500 o         1 MOL     -0.480568
     78 H34         7.3210   -1.9530   -1.5010 hn        1 MOL      0.299203
     79 H35         6.0100    0.3430   -2.3250 h1        1 MOL      0.124683
     80 H36         7.7300    0.3290   -1.6720 h1        1 MOL      0.124683
     81 N9          5.7520    2.0610   -0.4890 n         1 MOL     -0.508137
     82 C25         5.1890    2.9560    0.4610 c3        1 MOL      0.366892
     83 C26         3.8960    2.4040    1.1570 c         1 MOL      0.364442
     84 O13         3.5240    1.2320    0.9470 o         1 MOL     -0.506506
     85 C27         5.0340    4.3460   -0.2140 c3        1 MOL     -0.207792
     86 C28         6.2550    5.0110   -0.8530 ca        1 MOL      0.100235
     87 C29         7.3760    5.3430   -0.0700 ca        1 MOL     -0.225068
     88 C30         6.2200    5.4160   -2.2310 ca        1 MOL     -0.225068
     89 C31         8.3960    6.1380   -0.5760 ca        1 MOL     -0.152048
     90 C32         7.2480    6.2590   -2.6420 ca        1 MOL     -0.152048
     91 C33         8.3830    6.5750   -1.8990 ca        1 MOL      0.238319
     92 O14         9.4810    7.2300   -2.3790 oh        1 MOL     -0.432616
     93 H37         5.7730    2.3720   -1.4540 hn        1 MOL      0.273303
     94 H38         5.9390    3.0580    1.2520 h1        1 MOL      0.009563
     95 H39         4.4920    5.0870    0.3740 hc        1 MOL      0.053756
     96 H40         4.3110    4.1770   -1.0100 hc        1 MOL      0.053756
     97 H41         7.3970    5.0170    0.9510 ha        1 MOL      0.148003
     98 H42         5.3960    5.1540   -2.8740 ha        1 MOL      0.148003
     99 H43         9.2240    6.4010    0.0530 ha        1 MOL      0.127934
    100 H44         7.1410    6.5890   -3.6640 ha        1 MOL      0.127934
    101 H45         9.1960    7.8130   -3.0920 ho        1 MOL      0.345628
    102 N10         3.3530    3.1350    2.0960 n         1 MOL     -0.466478
    103 C34         2.2210    2.7600    2.9950 c3        1 MOL      0.132023
    104 C35         0.9500    2.3230    2.2730 c         1 MOL      0.205610
    105 O15         0.8060    1.2440    1.7020 o         1 MOL     -0.430467
    106 C36         2.6320    1.6800    4.0900 c3        1 MOL      0.368221
    107 C37         1.6960    1.7670    5.2980 c3        1 MOL     -0.079694
    108 C38         4.0740    1.9120    4.5720 c3        1 MOL     -0.360464
    109 C39         1.6530    0.4760    6.0780 c3        1 MOL      0.090877
    110 H46         3.7600    4.0460    2.2380 hn        1 MOL      0.281128
    111 H47         2.0290    3.6850    3.5350 h1        1 MOL      0.016231
    112 H48         2.4540    0.7140    3.6300 hc        1 MOL     -0.001146
    113 H49         0.7070    2.1360    5.0180 hc        1 MOL     -0.025039
    114 H50         2.1620    2.4680    5.9900 hc        1 MOL     -0.025039
    115 H51         4.2360    2.9720    4.7540 hc        1 MOL      0.089545
    116 H52         4.1600    1.4730    5.5640 hc        1 MOL      0.089545
    117 H53         4.8110    1.5880    3.8270 hc        1 MOL      0.089545
    118 H54         2.6320    0.0050    6.0680 hc        1 MOL     -0.016679
    119 H55         1.3180    0.6280    7.1040 hc        1 MOL     -0.016679
    120 H56         0.9280   -0.2230    5.6550 hc        1 MOL     -0.016679
    121 N11        -0.1940    3.0450    2.4570 n         1 MOL     -0.082677
    122 C40        -1.6650    2.8170    2.2950 c3        1 MOL     -0.281869
    123 C41        -2.1340    2.7280    0.8750 c         1 MOL      0.874718
    124 O16        -2.8890    1.8290    0.6360 o         1 MOL     -0.630321
    125 C42        -2.3660    3.9450    3.0320 c3        1 MOL      0.131562
    126 O17        -2.1090    5.1780    2.4620 oh        1 MOL     -0.566734
    127 H57        -0.0220    3.9540    2.8660 hn        1 MOL      0.150661
    128 H58        -1.9070    1.8500    2.7260 h1        1 MOL      0.155182
    129 H59        -2.0620    3.8830    4.0710 h1        1 MOL      0.061228
    130 H60        -3.4490    3.8670    2.9140 h1        1 MOL      0.061228
    131 H61        -2.0090    5.9230    3.0570 ho        1 MOL      0.402025
    132 N12        -1.5930    3.5700    0.0010 n         1 MOL     -0.526549
    133 C43        -2.0680    3.8450   -1.3110 c3        1 MOL      0.286934
    134 C44        -1.9840    2.7410   -2.3480 c         1 MOL      0.675955
    135 O18        -0.9050    2.4050   -2.7550 o         1 MOL     -0.602687
    136 C45        -1.4840    5.1190   -1.7890 c3        1 MOL     -0.267029
    137 H62        -0.9550    4.2600    0.3580 hn        1 MOL      0.222194
    138 H63        -3.1470    3.9230   -1.2510 h1        1 MOL     -0.051766
    139 H64        -2.0310    5.4270   -2.6760 hc        1 MOL      0.078390
    140 H65        -1.6010    5.9460   -1.0790 hc        1 MOL      0.078390
    141 H66        -0.4310    5.0020   -2.0440 hc        1 MOL      0.078390
    142 N13        -2.9610    1.9980   -2.8200 n         1 MOL     -0.771649
    143 C46        -4.3370    1.9150   -2.3550 c3        1 MOL      0.684793
    144 C47        -5.1970    3.1190   -2.8270 c         1 MOL      0.352394
    145 O19        -4.8930    3.7370   -3.8550 o         1 MOL     -0.515883
    146 C48        -4.9680    0.5520   -2.7050 c3        1 MOL     -0.360929
    147 H67        -2.6310    1.1960   -3.3510 hn        1 MOL      0.374926
    148 H68        -4.2000    1.9810   -1.2770 h1        1 MOL     -0.065555
    149 H69        -4.2430   -0.1970   -2.4120 hc        1 MOL      0.078035
    150 H70        -5.8950    0.3360   -2.1770 hc        1 MOL      0.078035
    151 H71        -5.0660    0.5080   -3.7890 hc        1 MOL      0.078035
    152 N14        -6.2900    3.4200   -2.0780 n         1 MOL     -0.480525
    153 C49        -6.6550    2.8990   -0.7250 c3        1 MOL     -0.308630
    154 C50        -6.2720    3.8830    0.3720 c         1 MOL      0.598502
    155 O20        -5.9100    3.4850    1.4920 o         1 MOL     -0.534064
    156 C51        -8.1690    2.7620   -0.6750 c3        1 MOL      0.202692
    157 C52        -8.7990    1.5970   -1.4630 c3        1 MOL     -0.282468
    158 C53       -10.2640    1.3970   -1.0400 c         1 MOL      0.712411
    159 O21       -11.0990    2.2470   -1.4090 o         1 MOL     -0.712252
    160 O22       -10.5970    0.3350   -0.4970 o         1 MOL     -0.712252
    161 H72        -6.8100    4.2300   -2.4000 hn        1 MOL      0.329908
    162 H73        -6.3060    1.8690   -0.6580 h1        1 MOL      0.180665
    163 H74        -8.6530    3.6930   -0.9570 hc        1 MOL     -0.002013
    164 H75        -8.4330    2.5960    0.3670 hc        1 MOL     -0.002013
    165 H76        -8.2460    0.6910   -1.2240 hc        1 MOL      0.038281
    166 H77        -8.8350    1.9550   -2.4970 hc        1 MOL      0.038281
    167 N15        -6.4000    5.1900    0.1310 n         1 MOL     -0.372039
    168 C54        -6.3110    6.1990    1.1580 c3        1 MOL     -0.076084
    169 H78        -5.3330    6.6780    1.1130 h1        1 MOL      0.071896
    170 H79        -7.0880    6.9470    1.0020 h1        1 MOL      0.071896
    171 H80        -6.4430    5.7360    2.1360 h1        1 MOL      0.071896
    172 H81        -6.8540    5.4330   -0.7280 hn        1 MOL      0.280725
    173 Ca1         1.7960   -0.2470   -0.2750 Ca        1 MOL      1.853524
    174 O23        -0.8140   -0.1360   -0.8420 oh        1 MOL     -0.922751
    175 H82        -1.0470   -0.4640   -1.7150 ho        1 MOL      0.431956
    176 H83        -1.5410   -0.3860   -0.2820 ho        1 MOL      0.431956
    177 O24         2.6730   -0.4990   -2.7780 oh        1 MOL     -0.922751
    178 H84         2.1260   -1.2470   -3.0210 ho        1 MOL      0.431956
    179 H85         3.4150   -0.5330   -3.3880 ho        1 MOL      0.431956
    180 O25         1.5010    2.0640   -1.4120 oh        1 MOL     -0.922751
    181 H86         0.5750    2.0420   -1.6600 ho        1 MOL      0.431956
    182 H87         1.8340    2.8720   -1.8050 ho        1 MOL      0.431956
@<TRIPOS>BOND
     1    1    2 1   
     2    1    4 1   
     3    1    5 1   
     4    1    6 1   
     5    2    3 2   
     6    2    7 1   
     7    7    8 1   
     8    7   15 1   
     9    8    9 1   
    10    8   11 1   
    11    8   16 1   
    12    9   10 2   
    13    9   19 1   
    14   11   12 1   
    15   11   17 1   
    16   11   18 1   
    17   12   13 1   
    18   12   14 1   
    19   19   20 1   
    20   19   28 1   
    21   20   21 1   
    22   20   23 1   
    23   20   29 1   
    24   21   22 2   
    25   21   41 1   
    26   23   24 1   
    27   23   30 1   
    28   23   31 1   
    29   24   25 1   
    30   24   32 1   
    31   24   33 1   
    32   25   26 1   
    33   25   34 1   
    34   25   35 1   
    35   26   27 1   
    36   26   36 1   
    37   26   37 1   
    38   27   38 1   
    39   27   39 1   
    40   27   40 1   
    41   41   42 1   
    42   41   49 1   
    43   42   43 1   
    44   42   45 1   
    45   42   50 1   
    46   43   44 2   
    47   43   53 1   
    48   45   46 1   
    49   45   51 1   
    50   45   52 1   
    51   46   47 1   
    52   46   48 1   
    53   53   54 1   
    54   53   57 1   
    55   54   55 1   
    56   54   58 1   
    57   54   59 1   
    58   55   56 2   
    59   55   60 1   
    60   60   61 1   
    61   60   68 1   
    62   61   62 1   
    63   61   64 1   
    64   61   69 1   
    65   62   63 2   
    66   62   74 1   
    67   64   65 1   
    68   64   70 1   
    69   64   71 1   
    70   65   66 1   
    71   65   67 2   
    72   66   72 1   
    73   66   73 1   
    74   74   75 1   
    75   74   78 1   
    76   75   76 1   
    77   75   79 1   
    78   75   80 1   
    79   76   77 2   
    80   76   81 1   
    81   81   82 1   
    82   81   93 1   
    83   82   83 1   
    84   82   85 1   
    85   82   94 1   
    86   83   84 2   
    87   83  102 1   
    88   85   86 1   
    89   85   95 1   
    90   85   96 1   
    91   86   87 ar  
    92   86   88 ar  
    93   87   89 ar  
    94   87   97 1   
    95   88   90 ar  
    96   88   98 1   
    97   89   91 ar  
    98   89   99 1   
    99   90   91 ar  
   100   90  100 1   
   101   91   92 1   
   102   92  101 1   
   103  102  103 1   
   104  102  110 1   
   105  103  104 1   
   106  103  106 1   
   107  103  111 1   
   108  104  105 2   
   109  104  121 1   
   110  106  107 1   
   111  106  108 1   
   112  106  112 1   
   113  107  109 1   
   114  107  113 1   
   115  107  114 1   
   116  108  115 1   
   117  108  116 1   
   118  108  117 1   
   119  109  118 1   
   120  109  119 1   
   121  109  120 1   
   122  121  122 1   
   123  121  127 1   
   124  122  123 1   
   125  122  125 1   
   126  122  128 1   
   127  123  124 2   
   128  123  132 1   
   129  125  126 1   
   130  125  129 1   
   131  125  130 1   
   132  126  131 1   
   133  132  133 1   
   134  132  137 1   
   135  133  134 1   
   136  133  136 1   
   137  133  138 1   
   138  134  135 2   
   139  134  142 1   
   140  136  139 1   
   141  136  140 1   
   142  136  141 1   
   143  142  143 1   
   144  142  147 1   
   145  143  144 1   
   146  143  146 1   
   147  143  148 1   
   148  144  145 2   
   149  144  152 1   
   150  146  149 1   
   151  146  150 1   
   152  146  151 1   
   153  152  153 1   
   154  152  161 1   
   155  153  154 1   
   156  153  156 1   
   157  153  162 1   
   158  154  155 2   
   159  154  167 1   
   160  156  157 1   
   161  156  163 1   
   162  156  164 1   
   163  157  158 1   
   164  157  165 1   
   165  157  166 1   
   166  158  159 1   
   167  158  160 1   
   168  167  168 1   
   169  167  172 1   
   170  168  169 1   
   171  168  170 1   
   172  168  171 1   
   173  174  175 1   
   174  174  176 1   
   175  177  178 1   
   176  177  179 1   
   177  180  181 1   
   178  180  182 1   
@<TRIPOS>SUBSTRUCTURE
     1 MOL         1 TEMP              0 ****  ****    0 ROOT
