@<TRIPOS>MOLECULE
MOL
  178   175     1     0     0
SMALL
resp


@<TRIPOS>ATOM
      1 C1         -8.4800   -7.0900   -2.4940 c3        1 MOL     -0.325673
      2 C2         -7.3800   -6.3030   -1.7980 c         1 MOL      0.701715
      3 O1         -6.4940   -6.9000   -1.2070 o         1 MOL     -0.600468
      4 H1         -8.5240   -8.0960   -2.0770 hc        1 MOL      0.081332
      5 H2         -9.4370   -6.5910   -2.3410 hc        1 MOL      0.081332
      6 H3         -8.2670   -7.1480   -3.5610 hc        1 MOL      0.081332
      7 N1         -7.3210   -4.9640   -1.7600 n         1 MOL     -0.628727
      8 C3         -8.2330   -3.9210   -2.3640 c3        1 MOL      0.185981
      9 C4         -9.0800   -3.1490   -1.3480 c         1 MOL      0.506498
     10 O2        -10.1470   -2.6600   -1.6800 o         1 MOL     -0.602515
     11 C5         -7.3820   -2.9760   -3.2150 c3        1 MOL     -0.172078
     12 C6         -6.3980   -2.0910   -2.5000 c         1 MOL      0.877756
     13 O3         -6.2750   -2.1770   -1.2560 o         1 MOL     -0.838837
     14 O4         -5.7180   -1.2700   -3.1220 o         1 MOL     -0.838837
     15 H4         -6.5990   -4.6680   -1.1140 hn        1 MOL      0.339065
     16 H5         -8.8660   -4.4160   -3.1100 h1        1 MOL      0.032824
     17 H6         -8.0520   -2.2800   -3.7330 hc        1 MOL      0.039620
     18 H7         -6.8100   -3.4830   -3.9970 hc        1 MOL      0.039620
     19 N2         -8.7820   -3.1310   -0.0890 n         1 MOL     -0.453051
     20 C7         -9.6200   -2.5870    0.9840 c3        1 MOL      0.273606
     21 C8         -9.2220   -1.1680    1.3640 c         1 MOL      0.364292
     22 O5         -9.7860   -0.5520    2.2110 o         1 MOL     -0.511914
     23 C9         -9.4960   -3.5580    2.1530 c3        1 MOL     -0.427229
     24 H8         -7.8690   -3.4810    0.1680 hn        1 MOL      0.294061
     25 H9        -10.6490   -2.5480    0.6160 h1        1 MOL      0.059494
     26 H10        -9.8920   -4.5350    1.8770 hc        1 MOL      0.117702
     27 H11        -8.4610   -3.6330    2.4760 hc        1 MOL      0.117702
     28 H12       -10.0960   -3.1830    2.9850 hc        1 MOL      0.117702
     29 N3         -8.1450   -0.6100    0.6640 n         1 MOL     -0.299893
     30 C10        -7.4630    0.6150    0.9930 c3        1 MOL      0.160652
     31 C11        -6.9470    1.4120   -0.2480 c         1 MOL      0.268716
     32 O6         -6.6010    0.7940   -1.2400 o         1 MOL     -0.462614
     33 C12        -6.4220    0.4180    2.0720 c3        1 MOL     -0.155443
     34 C13        -5.5830   -0.8140    1.9220 c         1 MOL      0.842283
     35 O7         -4.7390   -0.8440    0.9630 o         1 MOL     -0.737315
     36 O8         -5.6230   -1.7170    2.7290 o         1 MOL     -0.737315
     37 H13        -7.7680   -1.1910   -0.0720 hn        1 MOL      0.273494
     38 H14        -8.2280    1.2310    1.4730 h1        1 MOL     -0.002862
     39 H15        -6.9750    0.3140    2.9990 hc        1 MOL      0.016259
     40 H16        -5.7660    1.2970    2.0470 hc        1 MOL      0.016259
     41 N4         -6.9960    2.7190   -0.2140 n         1 MOL     -0.201209
     42 C14        -6.7220    3.6330   -1.3440 c3        1 MOL     -0.231629
     43 C15        -5.2520    3.6580   -1.8270 c         1 MOL      0.510018
     44 O9         -4.6110    2.6050   -1.8910 o         1 MOL     -0.526984
     45 H17        -7.2360    3.2270    0.6210 hn        1 MOL      0.263220
     46 H18        -7.0930    4.6420   -1.2020 h1        1 MOL      0.110328
     47 H19        -7.3160    3.2770   -2.1980 h1        1 MOL      0.110328
     48 N5         -4.6640    4.8500   -1.9500 n         1 MOL     -0.374457
     49 C16        -3.2520    5.1120   -1.8310 c3        1 MOL     -0.112930
     50 C17        -2.7360    4.6820   -0.4300 c         1 MOL      0.778696
     51 O10        -3.3200    5.1180    0.5660 o         1 MOL     -0.595968
     52 C18        -2.9860    6.6560   -2.0570 c3        1 MOL     -0.306610
     53 C19        -3.3880    7.1070   -3.4240 c         1 MOL      0.699295
     54 N6         -3.9350    8.3270   -3.4130 n         1 MOL     -0.798838
     55 O11        -3.1960    6.4390   -4.4300 o         1 MOL     -0.538436
     56 H20        -5.2670    5.6470   -2.0420 hn        1 MOL      0.284599
     57 H21        -2.7510    4.4840   -2.5690 h1        1 MOL      0.129945
     58 H22        -1.9340    6.9200   -1.9560 hc        1 MOL      0.111443
     59 H23        -3.4870    7.2400   -1.2840 hc        1 MOL      0.111443
     60 H24        -3.7250    8.9500   -2.6420 hn        1 MOL      0.356519
     61 H25        -4.2440    8.7140   -4.2880 hn        1 MOL      0.356519
     62 N7         -1.6450    3.9140   -0.2610 n         1 MOL     -0.657730
     63 C20        -1.3550    3.1670    0.9560 c3        1 MOL      0.234034
     64 C21        -2.4010    2.0830    1.2820 c         1 MOL      0.367494
     65 O12        -3.1250    1.6210    0.4000 o         1 MOL     -0.486944
     66 H26        -1.2590    3.5380   -1.1130 hn        1 MOL      0.302717
     67 H27        -1.2320    3.8720    1.7720 h1        1 MOL      0.078612
     68 H28        -0.3890    2.6690    0.8980 h1        1 MOL      0.078612
     69 N8         -2.6110    1.6420    2.5420 n         1 MOL     -0.334638
     70 C22        -1.8850    2.0790    3.7280 c3        1 MOL      0.093995
     71 C23        -0.4050    1.8700    3.6400 c         1 MOL      0.003432
     72 O13         0.3960    2.7400    3.9600 o         1 MOL     -0.445742
     73 C24        -2.4300    1.2980    4.9450 c3        1 MOL      0.616636
     74 C25        -1.8230    1.8340    6.2640 c3        1 MOL     -0.632662
     75 O14        -3.8300    1.3000    5.1270 oh        1 MOL     -0.681588
     76 H29        -3.3130    0.9270    2.6900 hn        1 MOL      0.203702
     77 H30        -2.1090    3.1260    3.8820 h1        1 MOL      0.065086
     78 H31        -2.2060    0.2360    4.8510 h1        1 MOL     -0.027486
     79 H32        -4.0510    0.4820    5.5920 ho        1 MOL      0.400886
     80 H33        -2.1890    2.8370    6.4880 hc        1 MOL      0.153724
     81 H34        -2.1560    1.2090    7.0890 hc        1 MOL      0.153724
     82 H35        -0.7400    1.7460    6.2260 hc        1 MOL      0.153724
     83 N9          0.0560    0.7170    3.0980 n         1 MOL      0.019718
     84 C26         1.4030    0.2770    2.7610 c3        1 MOL      0.111520
     85 C27         1.5780   -0.0350    1.2400 c         1 MOL      0.405653
     86 O15         0.6530   -0.5760    0.5870 o         1 MOL     -0.597896
     87 C28         1.7880   -0.9380    3.5510 c3        1 MOL      0.015507
     88 C29         1.3380   -0.8590    5.0020 c3        1 MOL     -0.178572
     89 C30         3.3150   -1.3280    3.5420 c3        1 MOL     -0.109928
     90 C31         1.9480    0.2940    5.7800 c3        1 MOL     -0.076655
     91 H36        -0.6430    0.0220    2.8800 hn        1 MOL      0.119461
     92 H37         2.0230    1.1480    3.0050 h1        1 MOL      0.050902
     93 H38         1.2380   -1.7460    3.0720 hc        1 MOL      0.025785
     94 H39         1.6100   -1.8140    5.4630 hc        1 MOL      0.049587
     95 H40         0.2510   -0.8180    5.0950 hc        1 MOL      0.049587
     96 H41         3.8080   -1.6460    2.6250 hc        1 MOL      0.047406
     97 H42         3.8640   -0.4360    3.8570 hc        1 MOL      0.047406
     98 H43         3.4690   -1.9810    4.3960 hc        1 MOL      0.047406
     99 H44         1.5890    1.2640    5.4170 hc        1 MOL      0.021736
    100 H45         1.5290    0.3330    6.7810 hc        1 MOL      0.021736
    101 H46         3.0390    0.2600    5.8530 hc        1 MOL      0.021736
    102 N10         2.7190    0.2140    0.5980 n         1 MOL     -0.216390
    103 C32         3.8760    0.9310    1.0390 c3        1 MOL     -0.052468
    104 C33         5.1140    0.3540    0.3570 c         1 MOL      0.525287
    105 O16         5.0950   -0.1180   -0.8000 o         1 MOL     -0.520037
    106 C34         3.6410    2.4420    0.7540 c3        1 MOL     -0.092241
    107 C35         2.8580    2.7280   -0.5410 c         1 MOL      0.607020
    108 O17         1.6660    3.1830   -0.5010 o         1 MOL     -0.682372
    109 O18         3.4660    2.6260   -1.6870 o         1 MOL     -0.682372
    110 H47         2.6990   -0.1520   -0.3530 hn        1 MOL      0.266362
    111 H48         3.9600    0.9000    2.1280 h1        1 MOL      0.051278
    112 H49         4.6300    2.9110    0.6830 hc        1 MOL      0.019166
    113 H50         3.1060    2.9770    1.5360 hc        1 MOL      0.019166
    114 N11         6.2090    0.5980    1.0490 n         1 MOL     -0.598246
    115 C36         7.5730    0.6810    0.4800 c3        1 MOL      0.573557
    116 C37         8.7080   -0.1540    1.0810 c         1 MOL      0.169554
    117 O19         8.8040   -0.0270    2.2730 o         1 MOL     -0.482037
    118 C38         7.9470    2.2190    0.4800 c3        1 MOL     -0.294329
    119 C39         8.9680    2.5170   -0.5590 ca        1 MOL      0.197030
    120 C40        10.2940    2.4630   -0.1570 ca        1 MOL     -0.299829
    121 C41         8.6280    2.5820   -1.9400 ca        1 MOL     -0.299829
    122 C42        11.2650    2.6020   -1.1220 ca        1 MOL      0.074343
    123 C43         9.6100    2.8770   -2.8950 ca        1 MOL      0.074343
    124 C44        10.9730    2.8570   -2.4500 ca        1 MOL     -0.365311
    125 H51         6.1100    1.0690    1.9370 hn        1 MOL      0.305160
    126 H52         7.3960    0.5180   -0.5890 h1        1 MOL      0.053745
    127 H53         8.3490    2.5390    1.4360 hc        1 MOL      0.072948
    128 H54         7.0980    2.8720    0.3020 hc        1 MOL      0.072948
    129 H55        10.5600    2.3510    0.8760 ha        1 MOL      0.163172
    130 H56         7.5780    2.4860   -2.1940 ha        1 MOL      0.163172
    131 H57        12.2460    2.5180   -0.6870 ha        1 MOL      0.075182
    132 H58         9.3320    3.0870   -3.9070 ha        1 MOL      0.075182
    133 H59        11.7430    2.9390   -3.2050 ha        1 MOL      0.147599
    134 N12         9.6290   -0.8280    0.3160 n         1 MOL      0.054189
    135 C45         9.7720   -0.8430   -1.1660 c3        1 MOL     -0.121021
    136 C46         8.5650   -1.4920   -1.8140 c         1 MOL      0.430864
    137 O20         8.1680   -1.1720   -2.9490 o         1 MOL     -0.547271
    138 C47        11.0970   -1.5900   -1.4310 c3        1 MOL      0.092122
    139 C48        11.6300   -2.0640   -0.0730 c3        1 MOL     -0.067914
    140 C49        10.8630   -1.3110    0.9770 c3        1 MOL     -0.203059
    141 H60         9.8520    0.1920   -1.4980 h1        1 MOL      0.080477
    142 H61        11.0580   -2.4200   -2.1430 hc        1 MOL      0.003576
    143 H62        11.8520   -0.9610   -1.8970 hc        1 MOL      0.003576
    144 H63        11.4650   -3.1240    0.0970 hc        1 MOL      0.040260
    145 H64        12.7000   -1.8770   -0.1310 hc        1 MOL      0.040260
    146 H65        10.6510   -2.0120    1.7860 h1        1 MOL      0.091192
    147 H66        11.4260   -0.4620    1.3620 h1        1 MOL      0.091192
    148 N13         7.8800   -2.3520   -1.0850 n         1 MOL     -0.301153
    149 C50         6.6210   -3.0110   -1.4880 c3        1 MOL      0.213933
    150 C51         6.9940   -4.1800   -2.4280 c         1 MOL      0.399113
    151 O21         7.6570   -5.1070   -1.9710 o         1 MOL     -0.551884
    152 C52         5.7510   -3.4670   -0.2850 c3        1 MOL      0.066305
    153 C53         6.3720   -4.3640    0.8240 c3        1 MOL     -0.231340
    154 C54         5.4040   -4.5030    1.9230 c         1 MOL      0.810958
    155 O22         5.2430   -3.6020    2.7800 o         1 MOL     -0.755436
    156 O23         4.9000   -5.5830    2.1380 o         1 MOL     -0.755436
    157 H67         8.2540   -2.5270   -0.1630 hn        1 MOL      0.215805
    158 H68         5.9990   -2.3020   -2.0460 h1        1 MOL      0.053434
    159 H69         4.8130   -3.9020   -0.6310 hc        1 MOL     -0.031369
    160 H70         5.4840   -2.5270    0.2070 hc        1 MOL     -0.031369
    161 H71         7.3330   -3.9950    1.1660 hc        1 MOL      0.035348
    162 H72         6.6120   -5.3600    0.4540 hc        1 MOL      0.035348
    163 N14         6.6720   -4.1560   -3.7590 n         1 MOL     -0.350033
    164 C55         6.0020   -3.1200   -4.5630 c3        1 MOL     -0.143802
    165 H73         6.4060   -2.1410   -4.3050 h1        1 MOL      0.080992
    166 H74         6.1720   -3.3150   -5.6220 h1        1 MOL      0.080992
    167 H75         4.9310   -3.1350   -4.3580 h1        1 MOL      0.080992
    168 H76         7.0920   -4.9080   -4.3010 hn        1 MOL      0.260295
    169 Ca1        -4.0480   -0.1550   -1.5390 Ca        1 MOL      1.784972
    170 O24        -2.8970   -1.9090   -3.1880 oh        1 MOL     -0.841914
    171 H77        -3.1290   -1.6480   -4.0730 ho        1 MOL      0.414730
    172 H78        -2.1950   -2.5470   -3.3040 ho        1 MOL      0.414730
    173 O25        -1.9720   -1.5160   -0.0820 oh        1 MOL     -0.841914
    174 H79        -2.2280   -2.3990    0.2140 ho        1 MOL      0.414730
    175 H80        -1.0150   -1.5130   -0.0410 ho        1 MOL      0.414730
    176 O26        -2.1670    1.1070   -2.7580 oh        1 MOL     -0.841914
    177 H81        -1.9670    1.8110   -3.3740 ho        1 MOL      0.414730
    178 H82        -1.3780    1.0370   -2.2150 ho        1 MOL      0.414730
@<TRIPOS>BOND
     1    1    2 1   
     2    1    4 1   
     3    1    5 1   
     4    1    6 1   
     5    2    3 2   
     6    2    7 1   
     7    7    8 1   
     8    7   15 1   
     9    8    9 1   
    10    8   11 1   
    11    8   16 1   
    12    9   10 2   
    13    9   19 1   
    14   11   12 1   
    15   11   17 1   
    16   11   18 1   
    17   12   13 1   
    18   12   14 1   
    19   19   20 1   
    20   19   24 1   
    21   20   21 1   
    22   20   23 1   
    23   20   25 1   
    24   21   22 2   
    25   21   29 1   
    26   23   26 1   
    27   23   27 1   
    28   23   28 1   
    29   29   30 1   
    30   29   37 1   
    31   30   31 1   
    32   30   33 1   
    33   30   38 1   
    34   31   32 2   
    35   31   41 1   
    36   33   34 1   
    37   33   39 1   
    38   33   40 1   
    39   34   35 1   
    40   34   36 1   
    41   41   42 1   
    42   41   45 1   
    43   42   43 1   
    44   42   46 1   
    45   42   47 1   
    46   43   44 2   
    47   43   48 1   
    48   48   49 1   
    49   48   56 1   
    50   49   50 1   
    51   49   52 1   
    52   49   57 1   
    53   50   51 2   
    54   50   62 1   
    55   52   53 1   
    56   52   58 1   
    57   52   59 1   
    58   53   54 1   
    59   53   55 2   
    60   54   60 1   
    61   54   61 1   
    62   62   63 1   
    63   62   66 1   
    64   63   64 1   
    65   63   67 1   
    66   63   68 1   
    67   64   65 2   
    68   64   69 1   
    69   69   70 1   
    70   69   76 1   
    71   70   71 1   
    72   70   73 1   
    73   70   77 1   
    74   71   72 2   
    75   71   83 1   
    76   73   74 1   
    77   73   75 1   
    78   73   78 1   
    79   74   80 1   
    80   74   81 1   
    81   74   82 1   
    82   75   79 1   
    83   83   84 1   
    84   83   91 1   
    85   84   85 1   
    86   84   87 1   
    87   84   92 1   
    88   85   86 2   
    89   85  102 1   
    90   87   88 1   
    91   87   89 1   
    92   87   93 1   
    93   88   90 1   
    94   88   94 1   
    95   88   95 1   
    96   89   96 1   
    97   89   97 1   
    98   89   98 1   
    99   90   99 1   
   100   90  100 1   
   101   90  101 1   
   102  102  103 1   
   103  102  110 1   
   104  103  104 1   
   105  103  106 1   
   106  103  111 1   
   107  104  105 2   
   108  104  114 1   
   109  106  107 1   
   110  106  112 1   
   111  106  113 1   
   112  107  108 1   
   113  107  109 1   
   114  114  115 1   
   115  114  125 1   
   116  115  116 1   
   117  115  118 1   
   118  115  126 1   
   119  116  117 2   
   120  116  134 1   
   121  118  119 1   
   122  118  127 1   
   123  118  128 1   
   124  119  120 ar  
   125  119  121 ar  
   126  120  122 ar  
   127  120  129 1   
   128  121  123 ar  
   129  121  130 1   
   130  122  124 ar  
   131  122  131 1   
   132  123  124 ar  
   133  123  132 1   
   134  124  133 1   
   135  134  135 1   
   136  134  140 1   
   137  135  136 1   
   138  135  138 1   
   139  135  141 1   
   140  136  137 2   
   141  136  148 1   
   142  138  139 1   
   143  138  142 1   
   144  138  143 1   
   145  139  140 1   
   146  139  144 1   
   147  139  145 1   
   148  140  146 1   
   149  140  147 1   
   150  148  149 1   
   151  148  157 1   
   152  149  150 1   
   153  149  152 1   
   154  149  158 1   
   155  150  151 2   
   156  150  163 1   
   157  152  153 1   
   158  152  159 1   
   159  152  160 1   
   160  153  154 1   
   161  153  161 1   
   162  153  162 1   
   163  154  155 1   
   164  154  156 1   
   165  163  164 1   
   166  163  168 1   
   167  164  165 1   
   168  164  166 1   
   169  164  167 1   
   170  170  171 1   
   171  170  172 1   
   172  173  174 1   
   173  173  175 1   
   174  176  177 1   
   175  176  178 1   
@<TRIPOS>SUBSTRUCTURE
     1 MOL         1 TEMP              0 ****  ****    0 ROOT
