@<TRIPOS>MOLECULE
MOL
  188   182     1     0     0
SMALL
resp


@<TRIPOS>ATOM
      1 C1         -8.9330    6.1100    0.6900 c3        1 MOL     -0.407593
      2 C2         -9.3910    5.0040   -0.2890 c         1 MOL      0.643624
      3 O1         -8.7890    4.6880   -1.3350 o         1 MOL     -0.583526
      4 H1         -9.4930    6.0240    1.6210 hc        1 MOL      0.107678
      5 H2         -7.8680    5.9960    0.8950 hc        1 MOL      0.107678
      6 H3         -9.1160    7.0870    0.2460 hc        1 MOL      0.107678
      7 N1        -10.3960    4.2010    0.0790 n         1 MOL     -0.502959
      8 C3        -10.8370    2.9560   -0.5950 c3        1 MOL      0.211169
      9 C4        -10.0360    1.7820   -0.1100 c         1 MOL      0.477255
     10 O2        -10.0350    1.5020    1.0750 o         1 MOL     -0.569410
     11 C5        -12.2870    2.7190   -0.4220 c3        1 MOL     -0.308018
     12 C6        -12.7070    1.4070   -1.0910 c         1 MOL      0.817289
     13 O3        -13.5570    0.6450   -0.6170 o         1 MOL     -0.737263
     14 O4        -12.2000    1.1100   -2.2050 o         1 MOL     -0.737263
     15 H4        -10.8960    4.4800    0.9120 hn        1 MOL      0.288298
     16 H5        -10.5730    3.0340   -1.6580 h1        1 MOL      0.033956
     17 H6        -12.8780    3.5780   -0.7550 hc        1 MOL      0.051155
     18 H7        -12.5470    2.6630    0.6360 hc        1 MOL      0.051155
     19 N2         -9.4970    0.9950   -1.0370 n         1 MOL     -0.286974
     20 C7         -8.6890   -0.2290   -0.8060 c3        1 MOL      0.015041
     21 C8         -7.3350   -0.1040   -1.4320 c         1 MOL      0.544529
     22 O5         -7.1830    0.4190   -2.5160 o         1 MOL     -0.521957
     23 C9         -9.4100   -1.5130   -1.2220 c3        1 MOL      0.045154
     24 C10       -10.8000   -1.8700   -0.7000 c3        1 MOL     -0.152381
     25 C11       -10.9000   -2.2030    0.7680 c3        1 MOL     -0.029106
     26 C12       -10.3100   -3.5220    1.1050 c3        1 MOL      0.021953
     27 N3        -11.0890   -4.6920    0.4880 n4        1 MOL     -0.388954
     28 H8         -9.4890    1.2730   -2.0130 hn        1 MOL      0.258226
     29 H9         -8.5580   -0.3750    0.2670 h1        1 MOL      0.059420
     30 H10        -8.8920   -2.4260   -0.9600 hc        1 MOL      0.000374
     31 H11        -9.5430   -1.4730   -2.3010 hc        1 MOL      0.000374
     32 H12       -11.2230   -2.5810   -1.4090 hc        1 MOL      0.069371
     33 H13       -11.4570   -1.0080   -0.8140 hc        1 MOL      0.069371
     34 H14       -11.9260   -2.1110    1.1180 hc        1 MOL      0.079209
     35 H15       -10.3120   -1.3980    1.2090 hc        1 MOL      0.079209
     36 H16       -10.3940   -3.5410    2.1870 hx        1 MOL      0.059219
     37 H17        -9.2860   -3.4960    0.7390 hx        1 MOL      0.059219
     38 H18       -11.0190   -4.6250   -0.5180 hn        1 MOL      0.324821
     39 H19       -10.5600   -5.5140    0.7560 hn        1 MOL      0.324821
     40 H20       -12.0420   -4.7710    0.8300 hn        1 MOL      0.324821
     41 N4         -6.2670   -0.4570   -0.7460 n         1 MOL     -0.509570
     42 C13        -4.8830   -0.4330   -1.3390 c3        1 MOL      0.101538
     43 C14        -4.4340   -1.8150   -1.8590 c         1 MOL      0.493720
     44 O6         -4.7320   -2.8740   -1.3360 o         1 MOL     -0.515219
     45 C15        -3.9000    0.0940   -0.2330 c3        1 MOL      0.018195
     46 C16        -2.4850    0.3020   -0.6840 c         1 MOL      0.425232
     47 O7         -1.5840   -0.5660   -0.5920 o         1 MOL     -0.672571
     48 O8         -2.1390    1.4340   -1.1930 o         1 MOL     -0.672571
     49 H21        -6.3520   -0.8630    0.1790 hn        1 MOL      0.273832
     50 H22        -4.8060    0.2940   -2.1470 h1        1 MOL      0.068758
     51 H23        -3.7970   -0.6350    0.5650 hc        1 MOL      0.044771
     52 H24        -4.3050    0.9980    0.2360 hc        1 MOL      0.044771
     53 N5         -3.6600   -1.7950   -2.9140 n         1 MOL     -0.346811
     54 C17        -3.1200   -2.9750   -3.6440 c3        1 MOL     -0.361303
     55 C18        -2.0020   -3.7370   -3.0010 c         1 MOL      0.538437
     56 O9         -1.7760   -4.8920   -3.3490 o         1 MOL     -0.537406
     57 H25        -3.3850   -0.8730   -3.2170 hn        1 MOL      0.268596
     58 H26        -2.7610   -2.6660   -4.6310 h1        1 MOL      0.182660
     59 H27        -3.9760   -3.6510   -3.6640 h1        1 MOL      0.182660
     60 N6         -1.4130   -3.1570   -1.9960 n         1 MOL     -0.354098
     61 C19        -0.6710   -3.9150   -1.0270 c3        1 MOL     -0.012142
     62 C20        -0.9380   -3.5820    0.4660 c         1 MOL      0.347172
     63 O10        -0.1520   -3.8570    1.3940 o         1 MOL     -0.438447
     64 C21         0.8200   -3.9790   -1.4310 c3        1 MOL     -0.286853
     65 C22         1.6380   -2.6640   -1.2950 c         1 MOL      0.721960
     66 N7          2.9870   -2.6210   -1.4970 n         1 MOL     -0.888369
     67 O11         1.0500   -1.6210   -1.0150 o         1 MOL     -0.649578
     68 H28        -1.4470   -2.1540   -1.9090 hn        1 MOL      0.462078
     69 H29        -1.0480   -4.9340   -1.0230 h1        1 MOL      0.135801
     70 H30         0.8260   -4.1910   -2.4950 hc        1 MOL      0.115327
     71 H31         1.3790   -4.8060   -1.0000 hc        1 MOL      0.115327
     72 H32         3.4140   -3.4650   -1.8560 hn        1 MOL      0.388831
     73 H33         3.5070   -1.9100   -1.0050 hn        1 MOL      0.388831
     74 N8         -2.1900   -3.0840    0.6920 n         1 MOL     -0.067788
     75 C23        -2.8300   -2.8820    1.9500 c3        1 MOL     -0.357695
     76 C24        -2.2820   -1.6600    2.7620 c         1 MOL      0.663748
     77 O12        -2.7440   -1.3980    3.8840 o         1 MOL     -0.559820
     78 H34        -2.7590   -2.9310   -0.1320 hn        1 MOL      0.137682
     79 H35        -2.5930   -3.6920    2.6280 h1        1 MOL      0.137425
     80 H36        -3.8970   -2.7560    1.7910 h1        1 MOL      0.137425
     81 N9         -1.2950   -0.9700    2.1980 n         1 MOL     -0.541253
     82 C25        -0.6130    0.1870    2.8240 c3        1 MOL      0.043590
     83 C26         0.6930    0.4120    2.0350 c         1 MOL      0.291108
     84 O13         0.7440    0.6200    0.8120 o         1 MOL     -0.491886
     85 C27        -1.3990    1.4520    2.6930 c3        1 MOL     -0.168213
     86 C28        -0.6860    2.5990    3.5110 ca        1 MOL     -0.097084
     87 C29        -0.6320    2.5390    4.9280 ca        1 MOL     -0.034570
     88 C30        -0.0210    3.6350    2.8050 ca        1 MOL     -0.034570
     89 C31         0.2090    3.4630    5.6220 ca        1 MOL     -0.397495
     90 C32         0.5800    4.6790    3.5210 ca        1 MOL     -0.397495
     91 C33         0.6850    4.5820    4.9620 ca        1 MOL      0.500967
     92 O14         1.3440    5.5390    5.6920 oh        1 MOL     -0.519158
     93 H37        -1.0820   -1.1660    1.2300 hn        1 MOL      0.406512
     94 H38        -0.4490    0.0310    3.8840 h1        1 MOL      0.101828
     95 H39        -2.4080    1.3430    3.0760 hc        1 MOL      0.106353
     96 H40        -1.3630    1.7090    1.6340 hc        1 MOL      0.106353
     97 H41        -1.2000    1.8340    5.5160 ha        1 MOL      0.135679
     98 H42         0.0640    3.6890    1.7350 ha        1 MOL      0.135679
     99 H43         0.4920    3.2860    6.6520 ha        1 MOL      0.180185
    100 H44         1.1970    5.3790    2.9840 ha        1 MOL      0.180185
    101 H45         1.6390    6.3020    5.1840 ho        1 MOL      0.377810
    102 N10         1.7760    0.2660    2.7640 n         1 MOL     -0.268767
    103 C34         3.1560    0.4010    2.2500 c3        1 MOL      0.139532
    104 C35         3.6530   -0.9120    1.6180 c         1 MOL      0.512860
    105 O15         4.2270   -0.9820    0.5270 o         1 MOL     -0.602959
    106 C36         4.0630    0.8690    3.4170 c3        1 MOL     -0.030912
    107 C37         3.7830    2.3150    3.9250 c3        1 MOL     -0.036759
    108 C38         5.5080    0.6350    3.0250 c3        1 MOL     -0.314300
    109 C39         3.6050    3.3860    2.9480 c3        1 MOL      0.237978
    110 H46         1.6230   -0.1450    3.6700 hn        1 MOL      0.246303
    111 H47         3.2460    1.0820    1.4040 h1        1 MOL      0.110777
    112 H48         3.9170    0.2770    4.3250 hc        1 MOL      0.012298
    113 H49         4.5440    2.6320    4.6500 hc        1 MOL      0.034239
    114 H50         2.8270    2.2390    4.4440 hc        1 MOL      0.034239
    115 H51         6.2380    0.9880    3.7680 hc        1 MOL      0.086213
    116 H52         5.7770   -0.4110    2.9300 hc        1 MOL      0.086213
    117 H53         5.6730    1.0770    2.0450 hc        1 MOL      0.086213
    118 H54         3.6460    4.3680    3.4230 hc        1 MOL     -0.079182
    119 H55         4.2230    3.3130    2.0460 hc        1 MOL     -0.079182
    120 H56         2.6470    3.2710    2.4440 hc        1 MOL     -0.079182
    121 N11         3.4410   -2.1060    2.2230 n         1 MOL     -0.272968
    122 C40         3.7120   -3.4480    1.6430 c3        1 MOL      0.008555
    123 C41         5.2470   -3.6760    1.3500 c         1 MOL      0.329047
    124 O16         5.6360   -4.1470    0.2790 o         1 MOL     -0.468032
    125 C42         3.1080   -4.5620    2.6000 c3        1 MOL      0.233825
    126 O17         1.8470   -4.1660    3.1360 oh        1 MOL     -0.565148
    127 H57         2.9160   -2.1810    3.0890 hn        1 MOL      0.206617
    128 H58         3.1410   -3.5890    0.7180 h1        1 MOL      0.055429
    129 H59         3.7870   -4.7480    3.4280 h1        1 MOL      0.023447
    130 H60         3.0720   -5.4860    2.0160 h1        1 MOL      0.023447
    131 H61         1.2150   -4.2150    2.4110 ho        1 MOL      0.332307
    132 N12         6.1290   -3.0490    2.1300 n         1 MOL     -0.343005
    133 C43         7.6070   -3.1510    1.9990 c3        1 MOL      0.187801
    134 C44         8.2920   -2.6330    0.7420 c         1 MOL      0.581707
    135 O18         9.4670   -2.8780    0.4590 o         1 MOL     -0.537418
    136 C45         8.1360   -4.5070    2.4330 c3        1 MOL     -0.377992
    137 H62         5.7460   -2.6600    2.9720 hn        1 MOL      0.242483
    138 H63         7.9660   -2.4220    2.7220 h1        1 MOL      0.047726
    139 H64         7.7980   -4.6800    3.4560 hc        1 MOL      0.112107
    140 H65         7.7190   -5.2530    1.7650 hc        1 MOL      0.112107
    141 H66         9.2290   -4.4400    2.4300 hc        1 MOL      0.112107
    142 N13         7.5280   -1.9040   -0.1180 n         1 MOL     -0.603766
    143 C46         8.0100   -1.3450   -1.3740 c3        1 MOL      0.213770
    144 C47         8.7520   -0.0020   -1.1290 c         1 MOL      0.468642
    145 O19         8.2930    0.7780   -0.3140 o         1 MOL     -0.464935
    146 C48         6.7680   -1.2960   -2.2680 c3        1 MOL     -0.223234
    147 H67         6.5300   -1.9140    0.0730 hn        1 MOL      0.328239
    148 H68         8.7240   -2.0660   -1.7730 h1        1 MOL      0.052687
    149 H69         6.2450   -2.2410   -2.3830 hc        1 MOL      0.067629
    150 H70         6.0090   -0.6310   -1.8440 hc        1 MOL      0.067629
    151 H71         6.9760   -0.8580   -3.2510 hc        1 MOL      0.067629
    152 N14         9.8070    0.2300   -1.9500 n         1 MOL     -0.558417
    153 C49        10.5280    1.5720   -2.0290 c3        1 MOL      0.311647
    154 C50        10.8460    2.3670   -0.7480 c         1 MOL      0.382802
    155 O20        10.6950    3.5890   -0.6590 o         1 MOL     -0.445543
    156 C51         9.7150    2.3690   -3.0270 c3        1 MOL     -0.112756
    157 C52        10.6700    3.1950   -3.9590 c3        1 MOL     -0.154508
    158 C53         9.8450    3.9250   -4.9840 c         1 MOL      0.678383
    159 O21         8.7200    4.4420   -4.6770 o         1 MOL     -0.667816
    160 O22        10.2770    3.8950   -6.1530 o         1 MOL     -0.667816
    161 H72        10.1530   -0.5510   -2.4860 hn        1 MOL      0.297902
    162 H73        11.5100    1.3760   -2.4700 h1        1 MOL     -0.018166
    163 H74         8.9770    2.9640   -2.4800 hc        1 MOL      0.038105
    164 H75         9.2460    1.6610   -3.7190 hc        1 MOL      0.038105
    165 H76        11.4580    2.6290   -4.4450 hc        1 MOL      0.031407
    166 H77        11.2560    3.8980   -3.3620 hc        1 MOL      0.031407
    167 N15        11.2610    1.5580    0.2510 n         1 MOL     -0.345240
    168 C54        11.2980    1.9680    1.6530 c3        1 MOL     -0.108497
    169 H78        10.5590    2.7520    1.8210 h1        1 MOL      0.079842
    170 H79        11.0720    1.1130    2.2890 h1        1 MOL      0.079842
    171 H80        12.2910    2.3480    1.8940 h1        1 MOL      0.079842
    172 H81        11.2550    0.5820    0.0080 hn        1 MOL      0.236915
    173 Ca1         0.3540    0.8780   -1.7250 Ca        1 MOL      1.700575
    174 O23         1.8690    1.7480   -3.8780 oh        1 MOL     -0.795336
    175 H82         1.7430    2.3540   -4.6080 ho        1 MOL      0.389888
    176 H83         2.8030    1.8200   -3.6660 ho        1 MOL      0.389888
    177 O24        -0.9770    3.0550   -3.2250 oh        1 MOL     -0.795336
    178 H84        -1.7070    3.2940   -2.6510 ho        1 MOL      0.389888
    179 H85        -0.4000    3.8220   -3.2050 ho        1 MOL      0.389888
    180 O25         0.9650    3.3630   -0.9010 oh        1 MOL     -0.795336
    181 H86         1.8150    3.7600   -1.0870 ho        1 MOL      0.389888
    182 H87         0.4060    4.1050   -0.6490 ho        1 MOL      0.389888
    183 O26        -0.2830   -0.6960   -3.7090 oh        1 MOL     -0.795336
    184 H88        -0.7590   -0.2790   -4.4320 ho        1 MOL      0.389888
    185 H89         0.3800   -1.2430   -4.1380 ho        1 MOL      0.389888
    186 O27         2.9390    1.0130   -1.2600 oh        1 MOL     -0.795336
    187 H90         3.7260    1.4920   -1.5190 ho        1 MOL      0.389888
    188 H91         3.2500    0.3930   -0.6060 ho        1 MOL      0.389888
@<TRIPOS>BOND
     1    1    2 1   
     2    1    4 1   
     3    1    5 1   
     4    1    6 1   
     5    2    3 2   
     6    2    7 1   
     7    7    8 1   
     8    7   15 1   
     9    8    9 1   
    10    8   11 1   
    11    8   16 1   
    12    9   10 2   
    13    9   19 1   
    14   11   12 1   
    15   11   17 1   
    16   11   18 1   
    17   12   13 1   
    18   12   14 1   
    19   19   20 1   
    20   19   28 1   
    21   20   21 1   
    22   20   23 1   
    23   20   29 1   
    24   21   22 2   
    25   21   41 1   
    26   23   24 1   
    27   23   30 1   
    28   23   31 1   
    29   24   25 1   
    30   24   32 1   
    31   24   33 1   
    32   25   26 1   
    33   25   34 1   
    34   25   35 1   
    35   26   27 1   
    36   26   36 1   
    37   26   37 1   
    38   27   38 1   
    39   27   39 1   
    40   27   40 1   
    41   41   42 1   
    42   41   49 1   
    43   42   43 1   
    44   42   45 1   
    45   42   50 1   
    46   43   44 2   
    47   43   53 1   
    48   45   46 1   
    49   45   51 1   
    50   45   52 1   
    51   46   47 1   
    52   46   48 1   
    53   53   54 1   
    54   53   57 1   
    55   54   55 1   
    56   54   58 1   
    57   54   59 1   
    58   55   56 2   
    59   55   60 1   
    60   60   61 1   
    61   60   68 1   
    62   61   62 1   
    63   61   64 1   
    64   61   69 1   
    65   62   63 2   
    66   62   74 1   
    67   64   65 1   
    68   64   70 1   
    69   64   71 1   
    70   65   66 1   
    71   65   67 2   
    72   66   72 1   
    73   66   73 1   
    74   74   75 1   
    75   74   78 1   
    76   75   76 1   
    77   75   79 1   
    78   75   80 1   
    79   76   77 2   
    80   76   81 1   
    81   81   82 1   
    82   81   93 1   
    83   82   83 1   
    84   82   85 1   
    85   82   94 1   
    86   83   84 2   
    87   83  102 1   
    88   85   86 1   
    89   85   95 1   
    90   85   96 1   
    91   86   87 ar  
    92   86   88 ar  
    93   87   89 ar  
    94   87   97 1   
    95   88   90 ar  
    96   88   98 1   
    97   89   91 ar  
    98   89   99 1   
    99   90   91 ar  
   100   90  100 1   
   101   91   92 1   
   102   92  101 1   
   103  102  103 1   
   104  102  110 1   
   105  103  104 1   
   106  103  106 1   
   107  103  111 1   
   108  104  105 2   
   109  104  121 1   
   110  106  107 1   
   111  106  108 1   
   112  106  112 1   
   113  107  109 1   
   114  107  113 1   
   115  107  114 1   
   116  108  115 1   
   117  108  116 1   
   118  108  117 1   
   119  109  118 1   
   120  109  119 1   
   121  109  120 1   
   122  121  122 1   
   123  121  127 1   
   124  122  123 1   
   125  122  125 1   
   126  122  128 1   
   127  123  124 2   
   128  123  132 1   
   129  125  126 1   
   130  125  129 1   
   131  125  130 1   
   132  126  131 1   
   133  132  133 1   
   134  132  137 1   
   135  133  134 1   
   136  133  136 1   
   137  133  138 1   
   138  134  135 2   
   139  134  142 1   
   140  136  139 1   
   141  136  140 1   
   142  136  141 1   
   143  142  143 1   
   144  142  147 1   
   145  143  144 1   
   146  143  146 1   
   147  143  148 1   
   148  144  145 2   
   149  144  152 1   
   150  146  149 1   
   151  146  150 1   
   152  146  151 1   
   153  152  153 1   
   154  152  161 1   
   155  153  154 1   
   156  153  156 1   
   157  153  162 1   
   158  154  155 2   
   159  154  167 1   
   160  156  157 1   
   161  156  163 1   
   162  156  164 1   
   163  157  158 1   
   164  157  165 1   
   165  157  166 1   
   166  158  159 1   
   167  158  160 1   
   168  167  168 1   
   169  167  172 1   
   170  168  169 1   
   171  168  170 1   
   172  168  171 1   
   173  174  175 1   
   174  174  176 1   
   175  177  178 1   
   176  177  179 1   
   177  180  181 1   
   178  180  182 1   
   179  183  184 1   
   180  183  185 1   
   181  186  187 1   
   182  186  188 1   
@<TRIPOS>SUBSTRUCTURE
     1 MOL         1 TEMP              0 ****  ****    0 ROOT
