@<TRIPOS>MOLECULE
MOL
  182   178     1     0     0
SMALL
resp


@<TRIPOS>ATOM
      1 C1          1.7150   -6.4290    4.9640 c3        1 MOL     -0.433015
      2 C2          1.5710   -5.6770    3.6100 c         1 MOL      0.770030
      3 O1          0.7580   -5.9840    2.7380 o         1 MOL     -0.610052
      4 H1          0.7280   -6.5900    5.3960 hc        1 MOL      0.115566
      5 H2          2.1990   -7.3910    4.7980 hc        1 MOL      0.115566
      6 H3          2.3170   -5.8320    5.6490 hc        1 MOL      0.115566
      7 N1          2.3050   -4.5890    3.5130 n         1 MOL     -0.611185
      8 C3          2.3280   -3.6780    2.3280 c3        1 MOL     -0.024672
      9 C4          2.9340   -4.5130    1.1390 c         1 MOL      0.571813
     10 O2          3.9610   -5.1460    1.3090 o         1 MOL     -0.537795
     11 C5          3.1620   -2.3860    2.7240 c3        1 MOL      0.110363
     12 C6          3.1840   -1.4360    1.5760 c         1 MOL      0.601410
     13 O3          3.7730   -0.3620    1.6150 o         1 MOL     -0.749311
     14 O4          2.5500   -1.6350    0.5460 o         1 MOL     -0.749311
     15 H4          2.8300   -4.2800    4.3210 hn        1 MOL      0.315985
     16 H5          1.3370   -3.4080    1.9910 h1        1 MOL      0.035565
     17 H6          4.1920   -2.6020    3.0260 hc        1 MOL      0.016932
     18 H7          2.8020   -1.8350    3.5910 hc        1 MOL      0.016932
     19 N2          2.4060   -4.4810   -0.0520 n         1 MOL     -0.376881
     20 C7          2.8420   -5.2970   -1.2880 c3        1 MOL     -0.019291
     21 C8          4.1070   -4.7330   -1.9420 c         1 MOL      0.391423
     22 O5          4.8400   -5.4800   -2.6300 o         1 MOL     -0.517907
     23 C9          1.6200   -5.3920   -2.2740 c3        1 MOL     -0.034091
     24 C10         1.4340   -4.1590   -3.1330 c3        1 MOL      0.071216
     25 C11         0.0270   -4.0040   -3.7160 c3        1 MOL     -0.119150
     26 C12        -0.0970   -2.6440   -4.3830 c3        1 MOL      0.109083
     27 N3         -1.1640   -2.5860   -5.4000 n4        1 MOL     -0.283855
     28 H8          1.5260   -3.9980   -0.1410 hn        1 MOL      0.275910
     29 H9          3.0440   -6.3160   -0.9470 h1        1 MOL      0.136039
     30 H10         0.7580   -5.6540   -1.6620 hc        1 MOL      0.032206
     31 H11         1.7770   -6.2350   -2.9490 hc        1 MOL      0.032206
     32 H12         2.2860   -4.0770   -3.7970 hc        1 MOL      0.002695
     33 H13         1.6510   -3.3860   -2.3900 hc        1 MOL      0.002695
     34 H14        -0.6740   -4.0930   -2.8800 hc        1 MOL      0.051855
     35 H15        -0.2040   -4.7910   -4.4390 hc        1 MOL      0.051855
     36 H16         0.8550   -2.5410   -4.9010 hx        1 MOL      0.054281
     37 H17        -0.1200   -1.7870   -3.7030 hx        1 MOL      0.054281
     38 H18        -2.0450   -2.9550   -5.0870 hn        1 MOL      0.288384
     39 H19        -1.2590   -1.6780   -5.8330 hn        1 MOL      0.288384
     40 H20        -0.8350   -3.1070   -6.1980 hn        1 MOL      0.288384
     41 N4          4.4710   -3.4360   -1.6670 n         1 MOL     -0.147967
     42 C13         5.6020   -2.7410   -2.2750 c3        1 MOL     -0.060688
     43 C14         6.5870   -2.1940   -1.3230 c         1 MOL      0.448524
     44 O6          7.5410   -1.5210   -1.6630 o         1 MOL     -0.533647
     45 C15         5.0530   -1.7540   -3.3140 c3        1 MOL     -0.281758
     46 C16         4.2920   -0.6110   -2.5990 c         1 MOL      0.474276
     47 O7          4.4350   -0.4440   -1.3640 o         1 MOL     -0.634499
     48 O8          3.6610    0.2420   -3.2220 o         1 MOL     -0.634499
     49 H21         3.8760   -2.8850   -1.0680 hn        1 MOL      0.253057
     50 H22         6.1270   -3.5130   -2.8380 h1        1 MOL      0.125931
     51 H23         4.3640   -2.1750   -4.0470 hc        1 MOL      0.119649
     52 H24         5.9240   -1.3790   -3.8500 hc        1 MOL      0.119649
     53 N5          6.3640   -2.4220   -0.0140 n         1 MOL     -0.191162
     54 C17         6.9220   -1.8280    1.1860 c3        1 MOL      0.043940
     55 C18         7.1800   -0.3240    1.1410 c         1 MOL      0.509444
     56 O9          8.0330    0.0950    1.8890 o         1 MOL     -0.562726
     57 H25         5.5740   -3.0410    0.1510 hn        1 MOL      0.106507
     58 H26         7.8180   -2.4070    1.3990 h1        1 MOL      0.048215
     59 H27         6.2310   -1.9890    2.0090 h1        1 MOL      0.048215
     60 N6          6.4480    0.4960    0.3240 n         1 MOL     -0.250726
     61 C19         6.8600    1.9660    0.1040 c3        1 MOL      0.161385
     62 C20         5.6800    2.9580    0.3060 c         1 MOL      0.413636
     63 O10         4.5270    2.5000    0.1450 o         1 MOL     -0.428515
     64 C21         7.6480    2.0610   -1.1850 c3        1 MOL     -0.162729
     65 C22         6.8580    2.0620   -2.4440 c         1 MOL      0.645294
     66 N7          7.0120    0.9520   -3.2180 n         1 MOL     -0.813106
     67 O11         6.2670    3.0740   -2.8280 o         1 MOL     -0.570064
     68 H28         5.6360    0.1420   -0.1510 hn        1 MOL      0.129929
     69 H29         7.5960    2.1540    0.8780 h1        1 MOL      0.031794
     70 H30         8.4710    1.3560   -1.3000 hc        1 MOL      0.050696
     71 H31         8.0890    3.0520   -1.0580 hc        1 MOL      0.050696
     72 H32         7.5330    0.2050   -2.8000 hn        1 MOL      0.388981
     73 H33         6.4970    0.9570   -4.0890 hn        1 MOL      0.388981
     74 N8          6.0200    4.2100    0.5120 n         1 MOL     -0.456307
     75 C23         4.9980    5.2410    0.2950 c3        1 MOL     -0.110119
     76 C24         3.8900    5.1080    1.3700 c         1 MOL      0.559910
     77 O12         4.1500    4.6150    2.4980 o         1 MOL     -0.467338
     78 H34         6.9780    4.5230    0.5640 hn        1 MOL      0.365398
     79 H35         4.5020    5.0180   -0.6420 h1        1 MOL      0.110519
     80 H36         5.4300    6.2380    0.2690 h1        1 MOL      0.110519
     81 N9          2.5870    5.3980    0.9660 n         1 MOL     -0.659314
     82 C25         1.3550    5.0570    1.6870 c3        1 MOL      0.185807
     83 C26         1.0710    3.5650    1.7630 c         1 MOL      0.856277
     84 O13         1.7400    2.7460    1.1690 o         1 MOL     -0.752278
     85 C27         0.1330    5.8470    1.1300 c3        1 MOL     -0.218513
     86 C28        -0.3370    5.3810   -0.2880 ca        1 MOL      0.181014
     87 C29         0.0180    6.1520   -1.4030 ca        1 MOL     -0.217279
     88 C30        -1.2870    4.3620   -0.4560 ca        1 MOL     -0.217279
     89 C31        -0.4430    5.7530   -2.6780 ca        1 MOL     -0.180901
     90 C32        -1.8050    4.0160   -1.7240 ca        1 MOL     -0.180901
     91 C33        -1.4200    4.7330   -2.8660 ca        1 MOL      0.275913
     92 O14        -1.9660    4.4150   -4.0950 oh        1 MOL     -0.511996
     93 H37         2.4590    5.8760    0.0890 hn        1 MOL      0.352966
     94 H38         1.4350    5.2620    2.7560 h1        1 MOL      0.036729
     95 H39         0.2470    6.9270    1.1950 hc        1 MOL      0.067686
     96 H40        -0.7230    5.7340    1.8000 hc        1 MOL      0.067686
     97 H41         0.7630    6.9280   -1.3410 ha        1 MOL      0.137399
     98 H42        -1.6730    3.8370    0.4100 ha        1 MOL      0.137399
     99 H43        -0.2050    6.4080   -3.4990 ha        1 MOL      0.161874
    100 H44        -2.5190    3.2100   -1.8550 ha        1 MOL      0.161874
    101 H45        -2.7060    3.8150   -4.0410 ho        1 MOL      0.407968
    102 N10         0.2070    3.2280    2.6890 n         1 MOL     -0.674362
    103 C34        -0.0730    1.9400    3.2990 c3        1 MOL      0.072651
    104 C35        -0.3980    0.8390    2.2510 c         1 MOL      0.216027
    105 O15         0.4630    0.2850    1.5490 o         1 MOL     -0.382840
    106 C36         1.2290    1.6320    4.0710 c3        1 MOL      0.020187
    107 C37         1.2430    0.2250    4.5860 c3        1 MOL      0.254053
    108 C38         1.3160    2.6550    5.2540 c3        1 MOL     -0.406855
    109 C39         2.2900   -0.2090    5.6070 c3        1 MOL     -0.243201
    110 H46        -0.1660    4.0060    3.2160 hn        1 MOL      0.338334
    111 H47        -0.9080    2.0480    3.9880 h1        1 MOL      0.080229
    112 H48         2.0980    1.7440    3.4190 hc        1 MOL      0.159532
    113 H49         1.2620   -0.3970    3.6970 hc        1 MOL     -0.071690
    114 H50         0.2850    0.0250    5.0620 hc        1 MOL     -0.071690
    115 H51         2.2900    2.5490    5.7330 hc        1 MOL      0.106916
    116 H52         1.3010    3.6780    4.8890 hc        1 MOL      0.106916
    117 H53         0.5450    2.4970    6.0020 hc        1 MOL      0.106916
    118 H54         2.2050   -1.2470    5.9110 hc        1 MOL      0.062122
    119 H55         3.2340    0.0110    5.1050 hc        1 MOL      0.062122
    120 H56         2.1300    0.3930    6.5020 hc        1 MOL      0.062122
    121 N11        -1.6350    0.3980    2.2120 n         1 MOL     -0.303326
    122 C40        -2.0130   -0.8080    1.5410 c3        1 MOL     -0.042506
    123 C41        -3.2510   -0.5950    0.6490 c         1 MOL      0.576508
    124 O16        -3.7200   -1.6220    0.1200 o         1 MOL     -0.529295
    125 C42        -2.2980   -1.8950    2.6070 c3        1 MOL      0.196958
    126 O17        -3.4370   -1.5450    3.3480 oh        1 MOL     -0.506589
    127 H57        -2.3660    0.7890    2.8030 hn        1 MOL      0.282440
    128 H58        -1.2260   -1.2140    0.9100 h1        1 MOL      0.069293
    129 H59        -1.4620   -1.9520    3.3100 h1        1 MOL      0.053108
    130 H60        -2.5440   -2.8460    2.1280 h1        1 MOL      0.053108
    131 H61        -3.0880   -0.8610    3.9230 ho        1 MOL      0.324169
    132 N12        -3.8770    0.5570    0.4790 n         1 MOL     -0.584318
    133 C43        -5.1020    0.6880   -0.2810 c3        1 MOL      0.040731
    134 C44        -5.1020    0.2310   -1.7870 c         1 MOL      0.726552
    135 O18        -4.1990    0.5170   -2.5920 o         1 MOL     -0.653146
    136 C45        -5.4270    2.2460   -0.2740 c3        1 MOL     -0.285365
    137 H62        -3.6190    1.3720    1.0200 hn        1 MOL      0.309681
    138 H63        -5.9290    0.1970    0.2360 h1        1 MOL      0.151030
    139 H64        -4.6860    2.8520   -0.7920 hc        1 MOL      0.081635
    140 H65        -6.4120    2.3240   -0.7410 hc        1 MOL      0.081635
    141 H66        -5.5540    2.4630    0.7840 hc        1 MOL      0.081635
    142 N13        -6.0870   -0.5300   -2.2490 n         1 MOL     -0.690348
    143 C46        -7.3330   -1.0920   -1.5700 c3        1 MOL      0.412328
    144 C47        -8.5720   -0.2320   -1.8330 c         1 MOL      0.451247
    145 O19        -8.5630    0.5870   -2.7130 o         1 MOL     -0.530098
    146 C48        -7.4600   -2.5530   -2.0510 c3        1 MOL     -0.200063
    147 H67        -5.8360   -0.9360   -3.1420 hn        1 MOL      0.336744
    148 H68        -7.1380   -1.1220   -0.5050 h1        1 MOL     -0.033251
    149 H69        -6.5060   -3.0750   -2.1060 hc        1 MOL      0.056328
    150 H70        -7.9830   -3.1580   -1.3080 hc        1 MOL      0.056328
    151 H71        -8.0370   -2.5890   -2.9750 hc        1 MOL      0.056328
    152 N14        -9.6600   -0.3740   -1.0880 n         1 MOL     -0.398210
    153 C49        -9.7620   -1.1780    0.1240 c3        1 MOL     -0.317812
    154 C50        -9.5730   -0.1440    1.3390 c         1 MOL      0.494978
    155 O20        -8.8960   -0.5310    2.2890 o         1 MOL     -0.561017
    156 C51       -11.0290   -2.0330    0.1040 c3        1 MOL      0.271996
    157 C52       -12.3140   -1.4380    0.6830 c3        1 MOL     -0.168523
    158 C53       -12.9970   -0.3990   -0.2660 c         1 MOL      0.685292
    159 O21       -14.0780   -0.6980   -0.7640 o         1 MOL     -0.656069
    160 O22       -12.4960    0.7370   -0.3850 o         1 MOL     -0.656069
    161 H72       -10.5340    0.0860   -1.3000 hn        1 MOL      0.268408
    162 H73        -8.9780   -1.9310    0.1270 h1        1 MOL      0.136253
    163 H74       -10.8170   -2.9340    0.6750 hc        1 MOL     -0.039268
    164 H75       -11.2190   -2.4620   -0.8780 hc        1 MOL     -0.039268
    165 H76       -12.1780   -0.9800    1.6670 hc        1 MOL      0.018674
    166 H77       -13.0220   -2.2500    0.7510 hc        1 MOL      0.018674
    167 N15       -10.0530    1.0560    1.2450 n         1 MOL     -0.189380
    168 C54       -10.0020    2.0630    2.2820 c3        1 MOL     -0.111751
    169 H78       -10.7570    1.8430    3.0370 h1        1 MOL      0.068865
    170 H79        -9.0150    2.0600    2.7440 h1        1 MOL      0.068865
    171 H80       -10.1980    3.0430    1.8470 h1        1 MOL      0.068865
    172 H81       -10.5350    1.2570    0.3840 hn        1 MOL      0.221673
    173 Ca1         2.4420    0.7550   -0.4440 Ca        1 MOL      1.819436
    174 O23         0.3500   -1.0490   -1.3830 oh        1 MOL     -0.812976
    175 H82         0.0680   -1.8270   -0.8880 ho        1 MOL      0.375967
    176 H83        -0.3900   -0.8570   -1.9550 ho        1 MOL      0.375967
    177 O24         0.4700    2.1530   -1.6310 oh        1 MOL     -0.812976
    178 H84        -0.1350    2.8990   -1.6300 ho        1 MOL      0.375967
    179 H85        -0.0020    1.4540   -2.0740 ho        1 MOL      0.375967
    180 O25         3.3980    2.7460   -2.6570 oh        1 MOL     -0.812976
    181 H86         4.2530    3.1470   -2.5190 ho        1 MOL      0.375967
    182 H87         3.5790    1.9960   -3.2310 ho        1 MOL      0.375967
@<TRIPOS>BOND
     1    1    2 1   
     2    1    4 1   
     3    1    5 1   
     4    1    6 1   
     5    2    3 2   
     6    2    7 1   
     7    7    8 1   
     8    7   15 1   
     9    8    9 1   
    10    8   11 1   
    11    8   16 1   
    12    9   10 2   
    13    9   19 1   
    14   11   12 1   
    15   11   17 1   
    16   11   18 1   
    17   12   13 1   
    18   12   14 1   
    19   19   20 1   
    20   19   28 1   
    21   20   21 1   
    22   20   23 1   
    23   20   29 1   
    24   21   22 2   
    25   21   41 1   
    26   23   24 1   
    27   23   30 1   
    28   23   31 1   
    29   24   25 1   
    30   24   32 1   
    31   24   33 1   
    32   25   26 1   
    33   25   34 1   
    34   25   35 1   
    35   26   27 1   
    36   26   36 1   
    37   26   37 1   
    38   27   38 1   
    39   27   39 1   
    40   27   40 1   
    41   41   42 1   
    42   41   49 1   
    43   42   43 1   
    44   42   45 1   
    45   42   50 1   
    46   43   44 2   
    47   43   53 1   
    48   45   46 1   
    49   45   51 1   
    50   45   52 1   
    51   46   47 1   
    52   46   48 1   
    53   53   54 1   
    54   53   57 1   
    55   54   55 1   
    56   54   58 1   
    57   54   59 1   
    58   55   56 2   
    59   55   60 1   
    60   60   61 1   
    61   60   68 1   
    62   61   62 1   
    63   61   64 1   
    64   61   69 1   
    65   62   63 2   
    66   62   74 1   
    67   64   65 1   
    68   64   70 1   
    69   64   71 1   
    70   65   66 1   
    71   65   67 2   
    72   66   72 1   
    73   66   73 1   
    74   74   75 1   
    75   74   78 1   
    76   75   76 1   
    77   75   79 1   
    78   75   80 1   
    79   76   77 2   
    80   76   81 1   
    81   81   82 1   
    82   81   93 1   
    83   82   83 1   
    84   82   85 1   
    85   82   94 1   
    86   83   84 2   
    87   83  102 1   
    88   85   86 1   
    89   85   95 1   
    90   85   96 1   
    91   86   87 ar  
    92   86   88 ar  
    93   87   89 ar  
    94   87   97 1   
    95   88   90 ar  
    96   88   98 1   
    97   89   91 ar  
    98   89   99 1   
    99   90   91 ar  
   100   90  100 1   
   101   91   92 1   
   102   92  101 1   
   103  102  103 1   
   104  102  110 1   
   105  103  104 1   
   106  103  106 1   
   107  103  111 1   
   108  104  105 2   
   109  104  121 1   
   110  106  107 1   
   111  106  108 1   
   112  106  112 1   
   113  107  109 1   
   114  107  113 1   
   115  107  114 1   
   116  108  115 1   
   117  108  116 1   
   118  108  117 1   
   119  109  118 1   
   120  109  119 1   
   121  109  120 1   
   122  121  122 1   
   123  121  127 1   
   124  122  123 1   
   125  122  125 1   
   126  122  128 1   
   127  123  124 2   
   128  123  132 1   
   129  125  126 1   
   130  125  129 1   
   131  125  130 1   
   132  126  131 1   
   133  132  133 1   
   134  132  137 1   
   135  133  134 1   
   136  133  136 1   
   137  133  138 1   
   138  134  135 2   
   139  134  142 1   
   140  136  139 1   
   141  136  140 1   
   142  136  141 1   
   143  142  143 1   
   144  142  147 1   
   145  143  144 1   
   146  143  146 1   
   147  143  148 1   
   148  144  145 2   
   149  144  152 1   
   150  146  149 1   
   151  146  150 1   
   152  146  151 1   
   153  152  153 1   
   154  152  161 1   
   155  153  154 1   
   156  153  156 1   
   157  153  162 1   
   158  154  155 2   
   159  154  167 1   
   160  156  157 1   
   161  156  163 1   
   162  156  164 1   
   163  157  158 1   
   164  157  165 1   
   165  157  166 1   
   166  158  159 1   
   167  158  160 1   
   168  167  168 1   
   169  167  172 1   
   170  168  169 1   
   171  168  170 1   
   172  168  171 1   
   173  174  175 1   
   174  174  176 1   
   175  177  178 1   
   176  177  179 1   
   177  180  181 1   
   178  180  182 1   
@<TRIPOS>SUBSTRUCTURE
     1 MOL         1 TEMP              0 ****  ****    0 ROOT
