@<TRIPOS>MOLECULE
MOL
  184   179     1     0     0
SMALL
resp


@<TRIPOS>ATOM
      1 C1          1.3940   -1.7980    4.4580 c3        1 MOL     -0.214612
      2 C2          2.4660   -1.4370    3.3800 c         1 MOL      0.528287
      3 O1          2.1860   -0.9790    2.2970 o         1 MOL     -0.516367
      4 H1          1.2050   -2.8710    4.4370 hc        1 MOL      0.053696
      5 H2          1.7600   -1.5150    5.4450 hc        1 MOL      0.053696
      6 H3          0.4690   -1.2630    4.2460 hc        1 MOL      0.053696
      7 N1          3.7100   -1.6690    3.6870 n         1 MOL     -0.389399
      8 C3          4.8760   -1.2950    2.9230 c3        1 MOL      0.211126
      9 C4          5.4340   -2.3690    1.9560 c         1 MOL      0.330688
     10 O2          6.2370   -2.0280    1.1380 o         1 MOL     -0.359754
     11 C5          5.9370   -0.7890    3.9380 c3        1 MOL     -0.010225
     12 C6          7.0140   -0.0360    3.1640 c         1 MOL      0.637239
     13 O3          6.8360    1.1870    2.7960 o         1 MOL     -0.684915
     14 O4          8.0750   -0.6340    2.9630 o         1 MOL     -0.684915
     15 H4          3.8610   -2.2850    4.4730 hn        1 MOL      0.221835
     16 H5          4.5430   -0.4520    2.3150 h1        1 MOL      0.055676
     17 H6          6.2890   -1.6100    4.5610 hc        1 MOL     -0.057241
     18 H7          5.3790   -0.0720    4.5390 hc        1 MOL     -0.057241
     19 N2          4.9220   -3.6330    1.9290 n         1 MOL     -0.382450
     20 C7          5.3040   -4.6110    0.9650 c3        1 MOL      0.295626
     21 C8          5.4330   -4.0550   -0.4410 c         1 MOL      0.416343
     22 O5          6.4760   -4.2450   -1.0550 o         1 MOL     -0.519606
     23 C9          6.4870   -5.4830    1.4090 c3        1 MOL     -0.421612
     24 H8          4.3920   -3.9450    2.7390 hn        1 MOL      0.227552
     25 H9          4.4290   -5.2590    0.9110 h1        1 MOL     -0.012647
     26 H10         6.3020   -5.9060    2.3920 hc        1 MOL      0.105282
     27 H11         6.7310   -6.2830    0.7060 hc        1 MOL      0.105282
     28 H12         7.3780   -4.8460    1.3600 hc        1 MOL      0.105282
     29 N3          4.4220   -3.3220   -0.9460 n         1 MOL     -0.119175
     30 C10         4.3370   -2.7550   -2.3530 c3        1 MOL     -0.128376
     31 C11         5.3770   -1.6500   -2.6210 c         1 MOL      0.637641
     32 O6          5.9810   -1.5710   -3.6820 o         1 MOL     -0.588620
     33 C12         4.0170   -3.8550   -3.4800 c3        1 MOL     -0.110660
     34 C13         2.8940   -4.7740   -3.0800 c         1 MOL      0.566794
     35 O7          3.0900   -5.9790   -3.3590 o         1 MOL     -0.664767
     36 O8          1.9790   -4.3290   -2.3750 o         1 MOL     -0.664767
     37 H13         3.5770   -3.2200   -0.4010 hn        1 MOL      0.109550
     38 H14         3.4690   -2.1060   -2.4380 h1        1 MOL      0.052411
     39 H15         4.8390   -4.4840   -3.8010 hc        1 MOL      0.041258
     40 H16         3.7190   -3.3270   -4.3920 hc        1 MOL      0.041258
     41 N4          5.7400   -0.9680   -1.5370 n         1 MOL     -0.164983
     42 C14         6.5950    0.2100   -1.5200 c3        1 MOL     -0.291569
     43 C15         6.0200    1.5720   -1.9510 c         1 MOL      0.649887
     44 O9          6.7370    2.5490   -2.0440 o         1 MOL     -0.557828
     45 H17         5.2880   -1.2520   -0.6770 hn        1 MOL      0.114658
     46 H18         7.4090   -0.0070   -2.2100 h1        1 MOL      0.127179
     47 H19         6.9680    0.3070   -0.5050 h1        1 MOL      0.127179
     48 N5          4.6870    1.6000   -2.1250 n         1 MOL     -0.375857
     49 C16         3.9250    2.7440   -2.4910 c3        1 MOL     -0.039553
     50 C17         3.9780    3.9090   -1.4160 c         1 MOL      0.548109
     51 O10         4.2250    3.6210   -0.2040 o         1 MOL     -0.482832
     52 C18         2.5200    2.3080   -2.7970 c3        1 MOL     -0.401726
     53 C19         2.5360    1.1210   -3.7130 c         1 MOL      0.730453
     54 N6          2.1740   -0.0540   -3.2330 n         1 MOL     -0.850454
     55 O11         2.8670    1.1940   -4.8760 o         1 MOL     -0.583375
     56 H20         4.3010    0.6680   -2.1810 hn        1 MOL      0.266529
     57 H21         4.4620    3.0910   -3.3620 h1        1 MOL      0.063463
     58 H22         1.9410    3.1410   -3.2090 hc        1 MOL      0.149793
     59 H23         2.0010    1.9920   -1.8820 hc        1 MOL      0.149793
     60 H24         1.7020   -0.0590   -2.3450 hn        1 MOL      0.349713
     61 H25         2.0790   -0.7760   -3.9310 hn        1 MOL      0.349713
     62 N7          3.6370    5.1440   -1.8610 n         1 MOL     -0.461786
     63 C20         3.5360    6.3790   -0.9850 c3        1 MOL      0.053392
     64 C21         2.1290    6.9070   -1.1370 c         1 MOL      0.510340
     65 O12         1.3610    6.5570   -2.0430 o         1 MOL     -0.504714
     66 H26         3.1650    5.1850   -2.7580 hn        1 MOL      0.278427
     67 H27         4.3160    7.0310   -1.3670 h1        1 MOL      0.060542
     68 H28         3.6360    6.1510    0.0720 h1        1 MOL      0.060542
     69 N8          1.6870    7.7560   -0.2470 n         1 MOL     -0.396550
     70 C22         0.3020    8.2850   -0.3150 c3        1 MOL     -0.365432
     71 C23        -0.7990    7.2850    0.0490 c         1 MOL      0.519225
     72 O13        -1.9890    7.6570    0.1920 o         1 MOL     -0.580739
     73 C24         0.1900    9.4780    0.5850 c3        1 MOL      0.561663
     74 C25         0.4390    9.3110    2.0650 c3        1 MOL     -0.343651
     75 O14         0.9720   10.5140    0.1390 oh        1 MOL     -0.682668
     76 H29         2.4220    8.1140    0.3540 hn        1 MOL      0.238567
     77 H30         0.1560    8.6730   -1.3240 h1        1 MOL      0.193339
     78 H31        -0.8120    9.8850    0.5570 h1        1 MOL      0.035845
     79 H32         1.9080   10.3110    0.1630 ho        1 MOL      0.398897
     80 H33         0.1200   10.1870    2.6400 hc        1 MOL      0.076134
     81 H34        -0.2920    8.5580    2.3370 hc        1 MOL      0.076134
     82 H35         1.4440    9.0030    2.3570 hc        1 MOL      0.076134
     83 N9         -0.4570    6.0470    0.1870 n         1 MOL     -0.129213
     84 C26        -1.2880    4.9570    0.7850 c3        1 MOL     -0.180878
     85 C27        -0.9930    3.6250    0.1470 c         1 MOL      0.505643
     86 O15         0.0890    3.4380   -0.4450 o         1 MOL     -0.433591
     87 C28        -1.0580    4.9200    2.3230 c3        1 MOL      0.322135
     88 C29         0.5170    4.9380    2.5930 c3        1 MOL     -0.045639
     89 C30        -1.8040    6.0300    3.0830 c3        1 MOL     -0.426352
     90 C31         0.8160    4.2490    3.9380 c3        1 MOL     -0.128102
     91 H36         0.4600    5.7050   -0.0370 hn        1 MOL      0.138096
     92 H37        -2.2950    5.3090    0.5440 h1        1 MOL      0.095679
     93 H38        -1.4930    4.0040    2.7150 hc        1 MOL     -0.037313
     94 H39         0.8180    5.9910    2.6280 hc        1 MOL      0.059944
     95 H40         1.0610    4.3890    1.8250 hc        1 MOL      0.059944
     96 H41        -1.4530    5.9650    4.1160 hc        1 MOL      0.094642
     97 H42        -1.5450    7.0200    2.7130 hc        1 MOL      0.094642
     98 H43        -2.8630    5.8360    2.9440 hc        1 MOL      0.094642
     99 H44         0.2000    4.6710    4.7310 hc        1 MOL      0.030463
    100 H45         0.4720    3.2160    3.8770 hc        1 MOL      0.030463
    101 H46         1.8690    4.3550    4.2150 hc        1 MOL      0.030463
    102 N10        -1.8450    2.6140    0.2690 n         1 MOL     -0.520716
    103 C32        -1.5970    1.3090   -0.3010 c3        1 MOL      0.047273
    104 C33        -2.9640    0.6050   -0.6610 c         1 MOL      0.762672
    105 O16        -3.0000   -0.5890   -1.0430 o         1 MOL     -0.683531
    106 C34        -0.8470    0.3810    0.6850 c3        1 MOL     -0.088279
    107 C35        -0.3000   -0.8760   -0.0610 c         1 MOL      0.660385
    108 O17        -0.6040   -2.0300    0.2650 o         1 MOL     -0.684035
    109 O18         0.4690   -0.6040   -1.0220 o         1 MOL     -0.684035
    110 H47        -2.7570    2.7160    0.6750 hn        1 MOL      0.284790
    111 H48        -1.0450    1.3730   -1.2370 h1        1 MOL      0.071711
    112 H49        -1.5760   -0.0540    1.3740 hc        1 MOL      0.060015
    113 H50        -0.0430    0.9040    1.2100 hc        1 MOL      0.060015
    114 N11        -4.1270    1.3320   -0.7090 n         1 MOL     -0.659880
    115 C36        -5.4460    0.7380   -1.0150 c3        1 MOL      0.296215
    116 C37        -5.9110   -0.4120   -0.1210 c         1 MOL      0.472049
    117 O19        -5.8750   -0.2470    1.0760 o         1 MOL     -0.544971
    118 C38        -6.4630    1.9460   -0.9960 c3        1 MOL     -0.373691
    119 C39        -7.8740    1.6090   -1.4010 ca        1 MOL      0.112506
    120 C40        -8.0810    1.5110   -2.7840 ca        1 MOL     -0.149176
    121 C41        -8.8300    1.2080   -0.5210 ca        1 MOL     -0.149176
    122 C42        -9.2530    1.0900   -3.3010 ca        1 MOL     -0.124032
    123 C43       -10.1610    0.9370   -1.0090 ca        1 MOL     -0.124032
    124 C44       -10.3310    0.8660   -2.4140 ca        1 MOL     -0.121909
    125 H51        -4.1440    2.2610   -0.2990 hn        1 MOL      0.298316
    126 H52        -5.2930    0.3380   -2.0140 h1        1 MOL      0.036502
    127 H53        -5.9630    2.6910   -1.6040 hc        1 MOL      0.129233
    128 H54        -6.4250    2.3120    0.0300 hc        1 MOL      0.129233
    129 H55        -7.2020    1.6650   -3.3970 ha        1 MOL      0.112504
    130 H56        -8.5440    1.1470    0.5230 ha        1 MOL      0.112504
    131 H57        -9.3730    0.9410   -4.3660 ha        1 MOL      0.118615
    132 H58       -10.9410    0.7520   -0.2870 ha        1 MOL      0.118615
    133 H59       -11.3220    0.6180   -2.7830 ha        1 MOL      0.102828
    134 N12        -6.4740   -1.5070   -0.6560 n         1 MOL     -0.010113
    135 C45        -7.1960   -2.4830    0.1040 c3        1 MOL      0.106685
    136 C46        -6.3910   -3.1340    1.2420 c         1 MOL      0.191829
    137 O20        -6.9560   -3.6590    2.2200 o         1 MOL     -0.495772
    138 C47        -7.7680   -3.5470   -0.8750 c3        1 MOL     -0.121519
    139 C48        -7.7620   -2.7500   -2.1950 c3        1 MOL      0.005630
    140 C49        -6.4880   -1.8230   -2.0700 c3        1 MOL     -0.031880
    141 H60        -7.9810   -1.9040    0.5900 h1        1 MOL      0.051371
    142 H61        -7.0600   -4.3690   -0.9020 hc        1 MOL      0.068818
    143 H62        -8.7870   -3.7890   -0.5600 hc        1 MOL      0.068818
    144 H63        -7.7350   -3.4170   -3.0610 hc        1 MOL      0.004635
    145 H64        -8.6850   -2.1680   -2.1520 hc        1 MOL      0.004635
    146 H65        -5.6040   -2.3300   -2.4600 h1        1 MOL      0.025055
    147 H66        -6.6300   -0.9110   -2.6400 h1        1 MOL      0.025055
    148 N13        -5.0890   -3.0250    1.2050 n         1 MOL     -0.060649
    149 C50        -4.2490   -3.3180    2.3760 c3        1 MOL     -0.021624
    150 C51        -4.2080   -2.2910    3.5420 c         1 MOL      0.399387
    151 O21        -4.0850   -2.6310    4.7580 o         1 MOL     -0.518339
    152 C52        -2.8120   -3.6050    1.9900 c3        1 MOL      0.027915
    153 C53        -2.1510   -4.6160    2.8840 c3        1 MOL     -0.317431
    154 C54        -0.8620   -5.1520    2.3350 c         1 MOL      0.755986
    155 O22        -0.7460   -5.4140    1.1410 o         1 MOL     -0.723883
    156 O23         0.0300   -5.3680    3.1790 o         1 MOL     -0.723883
    157 H67        -4.6120   -2.7420    0.3640 hn        1 MOL      0.144089
    158 H68        -4.5230   -4.2250    2.9160 h1        1 MOL      0.077812
    159 H69        -2.2580   -2.6620    1.9730 hc        1 MOL      0.004906
    160 H70        -2.7860   -3.9600    0.9690 hc        1 MOL      0.004906
    161 H71        -2.7600   -5.4930    3.0970 hc        1 MOL      0.086081
    162 H72        -1.8610   -4.0870    3.7970 hc        1 MOL      0.086081
    163 N14        -4.4650   -0.9570    3.2230 n         1 MOL     -0.098427
    164 C55        -4.5130    0.1730    4.0860 c3        1 MOL     -0.361368
    165 H73        -4.3250    1.0790    3.5080 h1        1 MOL      0.118625
    166 H74        -5.4970    0.2360    4.5490 h1        1 MOL      0.118625
    167 H75        -3.7520    0.0730    4.8600 h1        1 MOL      0.118625
    168 H76        -4.6340   -0.7760    2.2460 hn        1 MOL      0.166609
    169 Ca1        -0.1330   -4.1580   -0.9800 Ca        1 MOL      1.734887
    170 O24        -0.2310   -2.3990   -2.9760 oh        1 MOL     -0.841562
    171 H77         0.0610   -1.6750   -2.4260 ho        1 MOL      0.409664
    172 H78         0.0840   -2.1710   -3.8590 ho        1 MOL      0.409664
    173 O25         1.9110   -3.7630    0.9750 oh        1 MOL     -0.841562
    174 H79         2.2840   -4.1930    1.7390 ho        1 MOL      0.409664
    175 H80         1.9140   -2.8310    1.1930 ho        1 MOL      0.409664
    176 O26        -2.9960   -3.1100   -1.7740 oh        1 MOL     -0.841562
    177 H81        -2.7980   -2.2360   -1.4360 ho        1 MOL      0.409664
    178 H82        -3.1990   -2.9710   -2.6970 ho        1 MOL      0.409664
    179 O27         0.7640   -6.8360   -0.8860 oh        1 MOL     -0.841562
    180 H83         1.7100   -6.9460   -0.8470 ho        1 MOL      0.409664
    181 H84         0.4190   -7.5520   -0.3500 ho        1 MOL      0.409664
    182 O28        -1.5520   -5.7290   -2.6770 oh        1 MOL     -0.841562
    183 H85        -2.4800   -5.7910   -2.8970 ho        1 MOL      0.409664
    184 H86        -1.1010   -6.1030   -3.4360 ho        1 MOL      0.409664
@<TRIPOS>BOND
     1    1    2 1   
     2    1    4 1   
     3    1    5 1   
     4    1    6 1   
     5    2    3 2   
     6    2    7 1   
     7    7    8 1   
     8    7   15 1   
     9    8    9 1   
    10    8   11 1   
    11    8   16 1   
    12    9   10 2   
    13    9   19 1   
    14   11   12 1   
    15   11   17 1   
    16   11   18 1   
    17   12   13 1   
    18   12   14 1   
    19   19   20 1   
    20   19   24 1   
    21   20   21 1   
    22   20   23 1   
    23   20   25 1   
    24   21   22 2   
    25   21   29 1   
    26   23   26 1   
    27   23   27 1   
    28   23   28 1   
    29   29   30 1   
    30   29   37 1   
    31   30   31 1   
    32   30   33 1   
    33   30   38 1   
    34   31   32 2   
    35   31   41 1   
    36   33   34 1   
    37   33   39 1   
    38   33   40 1   
    39   34   35 1   
    40   34   36 1   
    41   41   42 1   
    42   41   45 1   
    43   42   43 1   
    44   42   46 1   
    45   42   47 1   
    46   43   44 2   
    47   43   48 1   
    48   48   49 1   
    49   48   56 1   
    50   49   50 1   
    51   49   52 1   
    52   49   57 1   
    53   50   51 2   
    54   50   62 1   
    55   52   53 1   
    56   52   58 1   
    57   52   59 1   
    58   53   54 1   
    59   53   55 2   
    60   54   60 1   
    61   54   61 1   
    62   62   63 1   
    63   62   66 1   
    64   63   64 1   
    65   63   67 1   
    66   63   68 1   
    67   64   65 2   
    68   64   69 1   
    69   69   70 1   
    70   69   76 1   
    71   70   71 1   
    72   70   73 1   
    73   70   77 1   
    74   71   72 2   
    75   71   83 1   
    76   73   74 1   
    77   73   75 1   
    78   73   78 1   
    79   74   80 1   
    80   74   81 1   
    81   74   82 1   
    82   75   79 1   
    83   83   84 1   
    84   83   91 1   
    85   84   85 1   
    86   84   87 1   
    87   84   92 1   
    88   85   86 2   
    89   85  102 1   
    90   87   88 1   
    91   87   89 1   
    92   87   93 1   
    93   88   90 1   
    94   88   94 1   
    95   88   95 1   
    96   89   96 1   
    97   89   97 1   
    98   89   98 1   
    99   90   99 1   
   100   90  100 1   
   101   90  101 1   
   102  102  103 1   
   103  102  110 1   
   104  103  104 1   
   105  103  106 1   
   106  103  111 1   
   107  104  105 2   
   108  104  114 1   
   109  106  107 1   
   110  106  112 1   
   111  106  113 1   
   112  107  108 1   
   113  107  109 1   
   114  114  115 1   
   115  114  125 1   
   116  115  116 1   
   117  115  118 1   
   118  115  126 1   
   119  116  117 2   
   120  116  134 1   
   121  118  119 1   
   122  118  127 1   
   123  118  128 1   
   124  119  120 ar  
   125  119  121 ar  
   126  120  122 ar  
   127  120  129 1   
   128  121  123 ar  
   129  121  130 1   
   130  122  124 ar  
   131  122  131 1   
   132  123  124 ar  
   133  123  132 1   
   134  124  133 1   
   135  134  135 1   
   136  134  140 1   
   137  135  136 1   
   138  135  138 1   
   139  135  141 1   
   140  136  137 2   
   141  136  148 1   
   142  138  139 1   
   143  138  142 1   
   144  138  143 1   
   145  139  140 1   
   146  139  144 1   
   147  139  145 1   
   148  140  146 1   
   149  140  147 1   
   150  148  149 1   
   151  148  157 1   
   152  149  150 1   
   153  149  152 1   
   154  149  158 1   
   155  150  151 2   
   156  150  163 1   
   157  152  153 1   
   158  152  159 1   
   159  152  160 1   
   160  153  154 1   
   161  153  161 1   
   162  153  162 1   
   163  154  155 1   
   164  154  156 1   
   165  163  164 1   
   166  163  168 1   
   167  164  165 1   
   168  164  166 1   
   169  164  167 1   
   170  170  171 1   
   171  170  172 1   
   172  173  174 1   
   173  173  175 1   
   174  176  177 1   
   175  176  178 1   
   176  179  180 1   
   177  179  181 1   
   178  182  183 1   
   179  182  184 1   
@<TRIPOS>SUBSTRUCTURE
     1 MOL         1 TEMP              0 ****  ****    0 ROOT
