@<TRIPOS>MOLECULE
MOL
  175   173     1     0     0
SMALL
resp


@<TRIPOS>ATOM
      1 C1         -7.0680    7.9530    1.6200 c3        1 MOL     -0.377876
      2 C2         -8.1830    7.2130    0.7990 c         1 MOL      0.682787
      3 O1         -8.7270    7.7860   -0.1180 o         1 MOL     -0.575679
      4 H1         -7.1820    7.7220    2.6790 hc        1 MOL      0.087148
      5 H2         -6.0860    7.6220    1.2810 hc        1 MOL      0.087148
      6 H3         -7.1600    9.0290    1.4710 hc        1 MOL      0.087148
      7 N1         -8.4880    5.9710    1.1760 n         1 MOL     -0.574879
      8 C3         -9.3410    5.1130    0.4200 c3        1 MOL      0.305223
      9 C4         -8.5520    4.2130   -0.4890 c         1 MOL      0.455108
     10 O2         -9.0730    3.8710   -1.5460 o         1 MOL     -0.479803
     11 C5        -10.1440    4.2360    1.3310 c3        1 MOL     -0.155191
     12 C6        -11.2330    3.4040    0.6810 c         1 MOL      0.641877
     13 O3        -12.3650    3.9790    0.6260 o         1 MOL     -0.709423
     14 O4        -10.9980    2.3160    0.1100 o         1 MOL     -0.709423
     15 H4         -7.9850    5.5150    1.9290 hn        1 MOL      0.295978
     16 H5        -10.0740    5.6550   -0.1770 h1        1 MOL      0.046359
     17 H6        -10.5290    4.8580    2.1420 hc        1 MOL     -0.015751
     18 H7         -9.5340    3.5300    1.9000 hc        1 MOL     -0.015751
     19 N2         -7.2590    3.9530   -0.1990 n         1 MOL     -0.600013
     20 C7         -6.4400    3.0590   -0.9670 c3        1 MOL      0.474102
     21 C8         -5.3580    2.3080   -0.0910 c         1 MOL      0.337694
     22 O5         -4.9030    2.8970    0.8790 o         1 MOL     -0.506828
     23 C9         -5.9800    3.6870   -2.3460 c3        1 MOL     -0.182343
     24 H8         -6.8700    4.1860    0.6950 hn        1 MOL      0.249552
     25 H9         -7.1330    2.2920   -1.3330 h1        1 MOL     -0.017894
     26 H10        -5.2090    4.4500   -2.2090 hc        1 MOL      0.044997
     27 H11        -5.5310    2.8970   -2.9390 hc        1 MOL      0.044997
     28 H12        -6.8410    4.0610   -2.8930 hc        1 MOL      0.044997
     29 N3         -4.7080    1.1810   -0.4530 n         1 MOL     -0.271614
     30 C10        -5.1210    0.1870   -1.4470 c3        1 MOL     -0.136782
     31 C11        -5.4680   -1.1840   -0.8620 c         1 MOL      0.602881
     32 O6         -4.9950   -1.6130    0.2080 o         1 MOL     -0.554512
     33 C12        -4.1140    0.2440   -2.6060 c3        1 MOL     -0.209199
     34 C13        -2.6610   -0.1060   -2.2790 c         1 MOL      0.729742
     35 O7         -2.2440   -1.2610   -2.6180 o         1 MOL     -0.703826
     36 O8         -1.9470    0.6490   -1.5880 o         1 MOL     -0.703826
     37 H13        -4.0390    0.8790    0.2420 hn        1 MOL      0.267706
     38 H14        -6.0600    0.5320   -1.8710 h1        1 MOL      0.076187
     39 H15        -4.1240    1.2910   -2.9310 hc        1 MOL      0.044409
     40 H16        -4.4820   -0.4090   -3.3980 hc        1 MOL      0.044409
     41 N4         -6.2030   -1.9820   -1.6790 n         1 MOL     -0.418279
     42 C14        -6.9140   -3.2300   -1.4060 c3        1 MOL      0.001316
     43 C15        -6.3650   -4.3650   -2.3020 c         1 MOL      0.489631
     44 O9         -7.1820   -5.0510   -2.9220 o         1 MOL     -0.567571
     45 H17        -6.4210   -1.6310   -2.6050 hn        1 MOL      0.309146
     46 H18        -7.9950   -3.1550   -1.5620 h1        1 MOL      0.086436
     47 H19        -6.7650   -3.3970   -0.3390 h1        1 MOL      0.086436
     48 N5         -5.1100   -4.7880   -2.4810 n         1 MOL     -0.356759
     49 C16        -3.9770   -4.4360   -1.6720 c3        1 MOL     -0.106580
     50 C17        -4.0130   -5.2800   -0.3600 c         1 MOL      0.529159
     51 O10        -3.9260   -6.5230   -0.4410 o         1 MOL     -0.555103
     52 C18        -2.6880   -4.6780   -2.4840 c3        1 MOL      0.020976
     53 C19        -1.4250   -4.2520   -1.8220 c         1 MOL      0.539133
     54 N6         -0.3920   -4.3260   -2.5580 n         1 MOL     -0.852176
     55 O11        -1.3810   -3.7550   -0.7270 o         1 MOL     -0.347056
     56 H20        -4.9910   -5.3930   -3.2890 hn        1 MOL      0.296034
     57 H21        -3.9760   -3.3700   -1.4160 h1        1 MOL      0.036110
     58 H22        -2.8630   -4.1340   -3.4090 hc        1 MOL      0.020436
     59 H23        -2.6110   -5.7260   -2.7970 hc        1 MOL      0.020436
     60 H24        -0.4660   -4.9150   -3.3720 hn        1 MOL      0.380725
     61 H25         0.4910   -4.0870   -2.1110 hn        1 MOL      0.380725
     62 N7         -3.9990   -4.7520    0.8180 n         1 MOL     -0.290501
     63 C20        -3.6670   -5.4670    2.1020 c3        1 MOL     -0.235459
     64 C21        -2.1660   -5.7740    2.3350 c         1 MOL      0.575722
     65 O12        -1.8840   -6.5900    3.2070 o         1 MOL     -0.566698
     66 H26        -4.2100   -3.7670    0.8840 hn        1 MOL      0.263998
     67 H27        -4.2060   -6.4180    2.0920 h1        1 MOL      0.117942
     68 H28        -3.9950   -4.8310    2.9160 h1        1 MOL      0.117942
     69 N8         -1.2370   -5.0410    1.6850 n         1 MOL     -0.103866
     70 C22         0.1490   -4.9930    2.0890 c3        1 MOL     -0.232066
     71 C23         0.7800   -3.6200    2.1270 c         1 MOL      0.545827
     72 O13         0.2760   -2.7670    1.3370 o         1 MOL     -0.566044
     73 C24         1.1120   -5.9410    1.2960 c3        1 MOL      0.448308
     74 C25         0.5250   -7.3670    1.4590 c3        1 MOL     -0.541961
     75 O14         1.0530   -5.5840   -0.0830 oh        1 MOL     -0.637452
     76 H29        -1.4790   -4.3410    1.0020 hn        1 MOL      0.078888
     77 H30         0.2520   -5.2720    3.1380 h1        1 MOL      0.069041
     78 H31         2.1520   -5.8800    1.6310 h1        1 MOL      0.003159
     79 H32         1.8960   -5.2770   -0.4210 ho        1 MOL      0.405441
     80 H33         1.2670   -8.1160    1.1740 hc        1 MOL      0.136141
     81 H34         0.3480   -7.5440    2.5220 hc        1 MOL      0.136141
     82 H35        -0.3700   -7.4440    0.8470 hc        1 MOL      0.136141
     83 N9          1.8750   -3.3360    2.8930 n         1 MOL     -0.435500
     84 C26         2.7890   -2.2320    2.5050 c3        1 MOL     -0.001726
     85 C27         3.9340   -2.7440    1.6560 c         1 MOL      0.716908
     86 O15         4.4120   -3.8210    1.8590 o         1 MOL     -0.574265
     87 C28         3.2220   -1.4460    3.7950 c3        1 MOL      0.020333
     88 C29         2.0010   -0.7580    4.3560 c3        1 MOL      0.074050
     89 C30         3.9530   -2.3120    4.8550 c3        1 MOL     -0.311338
     90 C31         2.1430    0.1520    5.5910 c3        1 MOL     -0.201903
     91 H36         2.2930   -4.0630    3.4500 hn        1 MOL      0.271841
     92 H37         2.2210   -1.5440    1.8790 h1        1 MOL     -0.021156
     93 H38         3.9510   -0.6800    3.5240 hc        1 MOL      0.020316
     94 H39         1.2210   -1.4510    4.6600 hc        1 MOL      0.031136
     95 H40         1.5030   -0.1960    3.5680 hc        1 MOL      0.031136
     96 H41         3.2670   -2.9500    5.4170 hc        1 MOL      0.079927
     97 H42         4.7390   -2.8730    4.3420 hc        1 MOL      0.079927
     98 H43         4.4990   -1.6900    5.5590 hc        1 MOL      0.079927
     99 H44         2.8870    0.9170    5.3620 hc        1 MOL      0.043251
    100 H45         1.1940    0.6590    5.7450 hc        1 MOL      0.043251
    101 H46         2.4230   -0.4050    6.4870 hc        1 MOL      0.043251
    102 N10         4.2310   -2.0370    0.5900 n         1 MOL     -0.694011
    103 C32         4.9470   -2.3970   -0.6430 c3        1 MOL      0.314957
    104 C33         6.1830   -1.4590   -0.9310 c         1 MOL      0.460516
    105 O16         6.8960   -1.7520   -1.8810 o         1 MOL     -0.561739
    106 C34         3.9290   -2.4390   -1.8380 c3        1 MOL     -0.260924
    107 C35         2.8270   -3.4230   -1.4280 c         1 MOL      0.751888
    108 O17         3.1880   -4.6210   -1.2800 o         1 MOL     -0.651180
    109 O18         1.6660   -2.9220   -1.3210 o         1 MOL     -0.651180
    110 H47         3.7430   -1.1570    0.5080 hn        1 MOL      0.315975
    111 H48         5.3890   -3.3910   -0.5170 h1        1 MOL      0.048189
    112 H49         4.4510   -2.9190   -2.6640 hc        1 MOL      0.035514
    113 H50         3.4150   -1.4940   -1.9910 hc        1 MOL      0.035514
    114 N11         6.3690   -0.3460   -0.2850 n         1 MOL     -0.416357
    115 C36         7.1830    0.7150   -0.7500 c3        1 MOL      0.414472
    116 C37         6.6830    2.1240   -0.3730 c         1 MOL      0.297802
    117 O19         6.1750    2.2990    0.7770 o         1 MOL     -0.487369
    118 C38         8.5770    0.4950   -0.2340 c3        1 MOL     -0.355390
    119 C39         9.6810    1.3290   -0.8940 ca        1 MOL      0.175376
    120 C40        10.0320    2.6310   -0.4110 ca        1 MOL     -0.202326
    121 C41        10.3610    0.7910   -1.9680 ca        1 MOL     -0.202326
    122 C42        11.0770    3.3480   -1.0310 ca        1 MOL     -0.058117
    123 C43        11.2890    1.5690   -2.6410 ca        1 MOL     -0.058117
    124 C44        11.6770    2.8230   -2.2100 ca        1 MOL     -0.203530
    125 H51         5.7380   -0.0880    0.4630 hn        1 MOL      0.210976
    126 H52         7.1800    0.6880   -1.8300 h1        1 MOL     -0.016301
    127 H53         8.7920   -0.5610   -0.3740 hc        1 MOL      0.116403
    128 H54         8.6700    0.6990    0.8350 hc        1 MOL      0.116403
    129 H55         9.5210    3.0390    0.4480 ha        1 MOL      0.137854
    130 H56        10.0950   -0.2060   -2.2980 ha        1 MOL      0.137854
    131 H57        11.3430    4.3000   -0.5930 ha        1 MOL      0.101277
    132 H58        11.7090    1.1240   -3.5240 ha        1 MOL      0.101277
    133 H59        12.4380    3.4120   -2.6950 ha        1 MOL      0.126513
    134 N12         6.7140    3.1870   -1.2380 n         1 MOL     -0.207609
    135 C45         6.4500    4.6020   -0.8380 c3        1 MOL      0.235027
    136 C46         5.1160    5.0110   -0.3110 c         1 MOL      0.193416
    137 O20         4.8760    6.1770    0.0630 o         1 MOL     -0.499889
    138 C47         6.9620    5.4790   -2.0420 c3        1 MOL     -0.144849
    139 C48         7.8790    4.5630   -2.8560 c3        1 MOL      0.031575
    140 C49         7.2840    3.1370   -2.6280 c3        1 MOL     -0.240466
    141 H60         7.1290    4.7660   -0.0030 h1        1 MOL      0.046170
    142 H61         6.0880    5.7710   -2.6140 hc        1 MOL      0.074457
    143 H62         7.5190    6.3880   -1.7870 hc        1 MOL      0.074457
    144 H63         7.8200    4.8030   -3.9170 hc        1 MOL      0.021089
    145 H64         8.8860    4.6330   -2.4380 hc        1 MOL      0.021089
    146 H65         6.4530    3.0520   -3.3250 h1        1 MOL      0.134512
    147 H66         8.1470    2.4930   -2.8040 h1        1 MOL      0.134512
    148 N13         4.1200    4.1300   -0.1870 n         1 MOL     -0.177036
    149 C50         2.8350    4.4900    0.5260 c3        1 MOL     -0.028406
    150 C51         3.0470    4.9140    1.9970 c         1 MOL      0.487159
    151 O21         2.2940    5.8080    2.5640 o         1 MOL     -0.537066
    152 C52         1.7880    3.3790    0.3810 c3        1 MOL     -0.256061
    153 C53         2.1750    2.0890    1.1370 c3        1 MOL     -0.081478
    154 C54         1.4410    0.8720    0.6610 c         1 MOL      0.648816
    155 O22         2.0740   -0.1140    0.1600 o         1 MOL     -0.685466
    156 O23         0.1790    0.8410    0.7890 o         1 MOL     -0.685466
    157 H67         4.3290    3.2210   -0.5840 hn        1 MOL      0.206459
    158 H68         2.3660    5.3900    0.1330 h1        1 MOL      0.107778
    159 H69         1.7740    3.1050   -0.6750 hc        1 MOL      0.125856
    160 H70         0.8520    3.7460    0.8080 hc        1 MOL      0.125856
    161 H71         1.9810    2.1100    2.2130 hc        1 MOL      0.036287
    162 H72         3.2600    1.9350    1.1380 hc        1 MOL      0.036287
    163 N14         3.9960    4.2530    2.7030 n         1 MOL     -0.173662
    164 C55         4.1410    4.3570    4.1660 c3        1 MOL     -0.263321
    165 H73         4.2070    5.4070    4.4500 h1        1 MOL      0.107470
    166 H74         3.2760    3.9040    4.6500 h1        1 MOL      0.107470
    167 H75         5.0480    3.8380    4.4800 h1        1 MOL      0.107470
    168 H76         4.5190    3.5590    2.1840 hn        1 MOL      0.208144
    169 Ca1        -0.2460   -1.2980   -0.6580 Ca        1 MOL      1.731914
    170 O24        -2.3080   -1.4560    0.8750 oh        1 MOL     -0.902262
    171 H77        -2.1560   -1.4520    1.8140 ho        1 MOL      0.427278
    172 H78        -3.2640   -1.4330    0.7860 ho        1 MOL      0.427278
    173 O25         0.7790   -0.4430   -2.8900 oh        1 MOL     -0.902262
    174 H79         1.5020   -0.9380   -3.2510 ho        1 MOL      0.427278
    175 H80         0.6850    0.3070   -3.4840 ho        1 MOL      0.427278
@<TRIPOS>BOND
     1    1    2 1   
     2    1    4 1   
     3    1    5 1   
     4    1    6 1   
     5    2    3 2   
     6    2    7 1   
     7    7    8 1   
     8    7   15 1   
     9    8    9 1   
    10    8   11 1   
    11    8   16 1   
    12    9   10 2   
    13    9   19 1   
    14   11   12 1   
    15   11   17 1   
    16   11   18 1   
    17   12   13 1   
    18   12   14 1   
    19   19   20 1   
    20   19   24 1   
    21   20   21 1   
    22   20   23 1   
    23   20   25 1   
    24   21   22 2   
    25   21   29 1   
    26   23   26 1   
    27   23   27 1   
    28   23   28 1   
    29   29   30 1   
    30   29   37 1   
    31   30   31 1   
    32   30   33 1   
    33   30   38 1   
    34   31   32 2   
    35   31   41 1   
    36   33   34 1   
    37   33   39 1   
    38   33   40 1   
    39   34   35 1   
    40   34   36 1   
    41   41   42 1   
    42   41   45 1   
    43   42   43 1   
    44   42   46 1   
    45   42   47 1   
    46   43   44 2   
    47   43   48 1   
    48   48   49 1   
    49   48   56 1   
    50   49   50 1   
    51   49   52 1   
    52   49   57 1   
    53   50   51 2   
    54   50   62 1   
    55   52   53 1   
    56   52   58 1   
    57   52   59 1   
    58   53   54 1   
    59   53   55 2   
    60   54   60 1   
    61   54   61 1   
    62   62   63 1   
    63   62   66 1   
    64   63   64 1   
    65   63   67 1   
    66   63   68 1   
    67   64   65 2   
    68   64   69 1   
    69   69   70 1   
    70   69   76 1   
    71   70   71 1   
    72   70   73 1   
    73   70   77 1   
    74   71   72 2   
    75   71   83 1   
    76   73   74 1   
    77   73   75 1   
    78   73   78 1   
    79   74   80 1   
    80   74   81 1   
    81   74   82 1   
    82   75   79 1   
    83   83   84 1   
    84   83   91 1   
    85   84   85 1   
    86   84   87 1   
    87   84   92 1   
    88   85   86 2   
    89   85  102 1   
    90   87   88 1   
    91   87   89 1   
    92   87   93 1   
    93   88   90 1   
    94   88   94 1   
    95   88   95 1   
    96   89   96 1   
    97   89   97 1   
    98   89   98 1   
    99   90   99 1   
   100   90  100 1   
   101   90  101 1   
   102  102  103 1   
   103  102  110 1   
   104  103  104 1   
   105  103  106 1   
   106  103  111 1   
   107  104  105 2   
   108  104  114 1   
   109  106  107 1   
   110  106  112 1   
   111  106  113 1   
   112  107  108 1   
   113  107  109 1   
   114  114  115 1   
   115  114  125 1   
   116  115  116 1   
   117  115  118 1   
   118  115  126 1   
   119  116  117 2   
   120  116  134 1   
   121  118  119 1   
   122  118  127 1   
   123  118  128 1   
   124  119  120 ar  
   125  119  121 ar  
   126  120  122 ar  
   127  120  129 1   
   128  121  123 ar  
   129  121  130 1   
   130  122  124 ar  
   131  122  131 1   
   132  123  124 ar  
   133  123  132 1   
   134  124  133 1   
   135  134  135 1   
   136  134  140 1   
   137  135  136 1   
   138  135  138 1   
   139  135  141 1   
   140  136  137 2   
   141  136  148 1   
   142  138  139 1   
   143  138  142 1   
   144  138  143 1   
   145  139  140 1   
   146  139  144 1   
   147  139  145 1   
   148  140  146 1   
   149  140  147 1   
   150  148  149 1   
   151  148  157 1   
   152  149  150 1   
   153  149  152 1   
   154  149  158 1   
   155  150  151 2   
   156  150  163 1   
   157  152  153 1   
   158  152  159 1   
   159  152  160 1   
   160  153  154 1   
   161  153  161 1   
   162  153  162 1   
   163  154  155 1   
   164  154  156 1   
   165  163  164 1   
   166  163  168 1   
   167  164  165 1   
   168  164  166 1   
   169  164  167 1   
   170  170  171 1   
   171  170  172 1   
   172  173  174 1   
   173  173  175 1   
@<TRIPOS>SUBSTRUCTURE
     1 MOL         1 TEMP              0 ****  ****    0 ROOT
