@<TRIPOS>MOLECULE
MOL
  182   178     1     0     0
SMALL
resp


@<TRIPOS>ATOM
      1 C1         -0.0440   -3.3420    6.1890 c3        1 MOL     -0.445049
      2 C2          0.2190   -3.1740    4.7040 c         1 MOL      0.792968
      3 O1         -0.7340   -2.9660    3.9040 o         1 MOL     -0.624696
      4 H1          0.5820   -2.6470    6.7490 hc        1 MOL      0.124962
      5 H2         -1.0930   -3.1350    6.3990 hc        1 MOL      0.124962
      6 H3          0.1920   -4.3640    6.4870 hc        1 MOL      0.124962
      7 N1          1.4600   -3.2670    4.3100 n         1 MOL     -0.588887
      8 C3          1.8160   -3.1620    2.8690 c3        1 MOL     -0.007573
      9 C4          1.7460   -4.4190    2.0600 c         1 MOL      0.530116
     10 O2          1.8870   -5.5260    2.5460 o         1 MOL     -0.549302
     11 C5          3.1710   -2.5180    2.8200 c3        1 MOL     -0.109964
     12 C6          3.4830   -1.6370    1.5940 c         1 MOL      0.645793
     13 O3          4.1060   -0.5790    1.6890 o         1 MOL     -0.683924
     14 O4          3.0610   -1.9150    0.4800 o         1 MOL     -0.683924
     15 H4          2.2760   -3.2160    4.9120 hn        1 MOL      0.338642
     16 H5          1.0410   -2.5450    2.3960 h1        1 MOL      0.182195
     17 H6          4.0000   -3.2170    2.8200 hc        1 MOL      0.063344
     18 H7          3.1740   -1.8720    3.6950 hc        1 MOL      0.063344
     19 N2          1.4610   -4.2210    0.7740 n         1 MOL     -0.306198
     20 C7          1.4180   -5.3480   -0.2310 c3        1 MOL      0.069897
     21 C8          2.6120   -5.3020   -1.1120 c         1 MOL      0.394441
     22 O5          2.7960   -6.2370   -1.8660 o         1 MOL     -0.539997
     23 C9          0.1680   -5.2360   -1.0420 c3        1 MOL      0.021882
     24 C10        -0.2800   -6.5490   -1.6000 c3        1 MOL     -0.043752
     25 C11        -1.6860   -6.3880   -2.0570 c3        1 MOL      0.127288
     26 C12        -2.1210   -7.6190   -2.8530 c3        1 MOL      0.032402
     27 N3         -3.5760   -7.5210   -3.1690 n4        1 MOL     -0.163245
     28 H8          1.5240   -3.2900    0.3760 hn        1 MOL      0.176252
     29 H9          1.3650   -6.3110    0.2760 h1        1 MOL      0.078826
     30 H10         0.4620   -4.6300   -1.8900 hc        1 MOL      0.020577
     31 H11        -0.6280   -4.7900   -0.4440 hc        1 MOL      0.020577
     32 H12        -0.2600   -7.2460   -0.7560 hc        1 MOL      0.031609
     33 H13         0.3960   -6.9270   -2.3700 hc        1 MOL      0.031609
     34 H14        -1.7380   -5.5170   -2.7180 hc        1 MOL     -0.008215
     35 H15        -2.4000   -6.3380   -1.2430 hc        1 MOL     -0.008215
     36 H16        -1.8610   -8.4960   -2.2500 hx        1 MOL      0.048732
     37 H17        -1.5120   -7.6750   -3.7500 hx        1 MOL      0.048732
     38 H18        -4.1210   -8.1880   -2.6410 hn        1 MOL      0.227573
     39 H19        -3.9490   -6.5950   -3.0480 hn        1 MOL      0.227573
     40 H20        -3.6420   -7.9150   -4.1010 hn        1 MOL      0.227573
     41 N4          3.4310   -4.2100   -1.2650 n         1 MOL     -0.038618
     42 C13         4.6760   -4.1480   -2.0870 c3        1 MOL     -0.063218
     43 C14         5.9630   -3.6170   -1.4600 c         1 MOL      0.460706
     44 O6          6.9730   -3.5490   -2.1870 o         1 MOL     -0.503699
     45 C15         4.3870   -3.3030   -3.3610 c3        1 MOL     -0.043435
     46 C16         3.9170   -1.9210   -2.9160 c         1 MOL      0.693962
     47 O7          4.7800   -1.1220   -2.4290 o         1 MOL     -0.729052
     48 O8          2.6810   -1.6610   -2.8990 o         1 MOL     -0.729052
     49 H21         3.2020   -3.3350   -0.8210 hn        1 MOL     -0.162845
     50 H22         4.9850   -5.1510   -2.3880 h1        1 MOL      0.123236
     51 H23         3.6090   -3.8280   -3.9180 hc        1 MOL      0.035975
     52 H24         5.2550   -3.3730   -4.0060 hc        1 MOL      0.035975
     53 N5          5.9790   -3.2550   -0.1910 n         1 MOL     -0.411397
     54 C17         7.1370   -2.8910    0.6090 c3        1 MOL      0.109141
     55 C18         7.3520   -1.4260    0.8380 c         1 MOL      0.531928
     56 O9          7.6640   -1.0510    1.9540 o         1 MOL     -0.558695
     57 H25         5.0600   -3.0880    0.1730 hn        1 MOL      0.284365
     58 H26         7.9820   -3.1040   -0.0440 h1        1 MOL      0.037813
     59 H27         7.2110   -3.4480    1.5420 h1        1 MOL      0.037813
     60 N6          7.1970   -0.6150   -0.2310 n         1 MOL     -0.418469
     61 C19         7.4980    0.8040   -0.2000 c3        1 MOL      0.131036
     62 C20         6.2950    1.7630   -0.3390 c         1 MOL      0.712935
     63 O10         5.2120    1.4310   -0.8060 o         1 MOL     -0.584040
     64 C21         8.5700    1.0860   -1.2980 c3        1 MOL     -0.344055
     65 C22         9.7040    0.0460   -1.1430 c         1 MOL      0.695899
     66 N7         10.3110   -0.1150    0.0280 n         1 MOL     -0.845182
     67 O11        10.0380   -0.6390   -2.0980 o         1 MOL     -0.544910
     68 H28         6.9240   -1.0910   -1.0800 hn        1 MOL      0.344204
     69 H29         7.9950    1.0760    0.7290 h1        1 MOL     -0.013639
     70 H30         8.9170    2.1120   -1.2100 hc        1 MOL      0.094940
     71 H31         8.2420    0.8300   -2.2970 hc        1 MOL      0.094940
     72 H32        10.0750    0.4450    0.8380 hn        1 MOL      0.388116
     73 H33        10.9570   -0.8840    0.0990 hn        1 MOL      0.388116
     74 N8          6.6340    2.9340    0.2030 n         1 MOL     -0.498866
     75 C23         5.9090    4.1600    0.0600 c3        1 MOL     -0.168491
     76 C24         4.5570    4.3790    0.7470 c         1 MOL      0.648117
     77 O12         4.4450    3.9510    1.9020 o         1 MOL     -0.494274
     78 H34         7.4560    2.9570    0.7950 hn        1 MOL      0.362638
     79 H35         5.7140    4.2160   -1.0070 h1        1 MOL      0.098997
     80 H36         6.5470    5.0070    0.3370 h1        1 MOL      0.098997
     81 N9          3.5770    4.9390    0.0350 n         1 MOL     -0.634132
     82 C25         2.1670    4.9550    0.4900 c3        1 MOL      0.134823
     83 C26         1.6910    3.4690    0.7390 c         1 MOL      0.526580
     84 O13         2.1790    2.5450    0.1360 o         1 MOL     -0.492906
     85 C27         1.2800    5.6930   -0.4880 c3        1 MOL     -0.074469
     86 C28         1.6480    7.1050   -0.7990 ca        1 MOL      0.074988
     87 C29         1.4320    8.1600    0.1400 ca        1 MOL     -0.200539
     88 C30         2.1310    7.3800   -2.1280 ca        1 MOL     -0.200539
     89 C31         1.6480    9.4730   -0.3090 ca        1 MOL     -0.215695
     90 C32         2.2800    8.7120   -2.5360 ca        1 MOL     -0.215695
     91 C33         2.1290    9.7660   -1.5990 ca        1 MOL      0.285016
     92 O14         2.5190   10.9570   -2.0030 oh        1 MOL     -0.404219
     93 H37         3.7880    5.1600   -0.9180 hn        1 MOL      0.319193
     94 H38         2.1210    5.5080    1.4350 h1        1 MOL      0.060639
     95 H39         0.2850    5.5500   -0.0540 hc        1 MOL      0.035337
     96 H40         1.2290    5.1670   -1.4380 hc        1 MOL      0.035337
     97 H41         0.9760    7.9370    1.0900 ha        1 MOL      0.145242
     98 H42         2.3120    6.5330   -2.7810 ha        1 MOL      0.145242
     99 H43         1.5930   10.2860    0.3940 ha        1 MOL      0.147761
    100 H44         2.5920    9.0230   -3.5210 ha        1 MOL      0.147761
    101 H45         2.3540   11.4830   -1.2180 ho        1 MOL      0.336046
    102 N10         0.8360    3.3440    1.7530 n         1 MOL     -0.472529
    103 C34         0.3700    2.0640    2.3300 c3        1 MOL     -0.126875
    104 C35        -0.0870    0.9240    1.3520 c         1 MOL      0.409156
    105 O15         0.6920    0.4520    0.5850 o         1 MOL     -0.422940
    106 C36         1.4210    1.5880    3.3900 c3        1 MOL      0.121575
    107 C37         0.9090    0.3290    4.2730 c3        1 MOL     -0.090662
    108 C38         1.6470    2.7650    4.3560 c3        1 MOL     -0.299189
    109 C39        -0.4400    0.5990    4.9290 c3        1 MOL     -0.087530
    110 H46         0.5090    4.1870    2.2100 hn        1 MOL      0.309400
    111 H47        -0.5210    2.3030    2.9200 h1        1 MOL      0.126404
    112 H48         2.3270    1.3440    2.8420 hc        1 MOL      0.056509
    113 H49         1.6730    0.1110    5.0230 hc        1 MOL      0.038948
    114 H50         0.8450   -0.5550    3.6390 hc        1 MOL      0.038948
    115 H51         0.6860    3.1250    4.7160 hc        1 MOL      0.083678
    116 H52         2.1910    2.3920    5.2200 hc        1 MOL      0.083678
    117 H53         2.2460    3.5420    3.8990 hc        1 MOL      0.083678
    118 H54        -1.2340    0.7770    4.2020 hc        1 MOL      0.020533
    119 H55        -0.6700   -0.3440    5.4360 hc        1 MOL      0.020533
    120 H56        -0.4920    1.4840    5.5690 hc        1 MOL      0.020533
    121 N11        -1.3260    0.5120    1.2200 n         1 MOL     -0.229901
    122 C40        -1.7820   -0.6130    0.3050 c3        1 MOL     -0.186060
    123 C41        -3.2150   -0.3730   -0.2600 c         1 MOL      0.663011
    124 O16        -3.6610   -1.1490   -1.1600 o         1 MOL     -0.559437
    125 C42        -1.6580   -1.9810    0.8920 c3        1 MOL      0.655059
    126 O17        -2.4370   -2.0140    2.0720 oh        1 MOL     -0.692163
    127 H57        -2.0570    1.0560    1.6390 hn        1 MOL      0.188710
    128 H58        -1.1870   -0.6190   -0.6080 h1        1 MOL      0.021449
    129 H59        -0.6530   -2.3170    1.1390 h1        1 MOL     -0.134387
    130 H60        -2.0880   -2.6770    0.1600 h1        1 MOL     -0.134387
    131 H61        -1.9520   -2.5270    2.7150 ho        1 MOL      0.398784
    132 N12        -4.0510    0.5500    0.1980 n         1 MOL     -0.603960
    133 C43        -5.4470    0.5050   -0.1430 c3        1 MOL      0.168307
    134 C44        -5.7830    0.8310   -1.6380 c         1 MOL      0.571529
    135 O18        -5.0160    1.5080   -2.3080 o         1 MOL     -0.546439
    136 C45        -6.0640    1.3800    0.9540 c3        1 MOL     -0.269845
    137 H62        -3.7260    1.1910    0.9160 hn        1 MOL      0.323692
    138 H63        -5.6820   -0.5480    0.0320 h1        1 MOL      0.098906
    139 H64        -5.6890    2.4010    0.9910 hc        1 MOL      0.087668
    140 H65        -7.1550    1.4000    0.9110 hc        1 MOL      0.087668
    141 H66        -5.8810    0.9600    1.9430 hc        1 MOL      0.087668
    142 N13        -6.9530    0.4400   -2.2010 n         1 MOL     -0.577946
    143 C46        -8.1990   -0.0770   -1.5090 c3        1 MOL      0.155533
    144 C47        -9.4730    0.4350   -2.2230 c         1 MOL      0.423755
    145 O19        -9.5490    0.3460   -3.4480 o         1 MOL     -0.536429
    146 C48        -8.1240   -1.5950   -1.4890 c3        1 MOL     -0.131012
    147 H67        -7.0000    0.6250   -3.1900 hn        1 MOL      0.347484
    148 H68        -8.2830    0.1150   -0.4440 h1        1 MOL      0.008755
    149 H69        -7.2210   -1.9600   -0.9950 hc        1 MOL      0.047360
    150 H70        -8.9540   -2.0780   -0.9810 hc        1 MOL      0.047360
    151 H71        -7.9760   -1.9750   -2.5030 hc        1 MOL      0.047360
    152 N14       -10.4970    0.9230   -1.5450 n         1 MOL     -0.331970
    153 C49       -10.6980    0.8440   -0.0570 c3        1 MOL     -0.072118
    154 C50        -9.8960    1.9480    0.7240 c         1 MOL      0.349205
    155 O20        -9.7440    1.7870    1.9130 o         1 MOL     -0.504775
    156 C51       -12.1980    0.6940    0.3330 c3        1 MOL     -0.004466
    157 C52       -12.7570   -0.6690   -0.0310 c3        1 MOL     -0.127268
    158 C53       -14.1820   -0.8330    0.4330 c         1 MOL      0.668030
    159 O21       -15.0310   -0.1390   -0.1730 o         1 MOL     -0.649827
    160 O22       -14.4490   -1.6030    1.3720 o         1 MOL     -0.649827
    161 H72       -11.2950    1.1810   -2.1140 hn        1 MOL      0.302048
    162 H73       -10.1440   -0.0380    0.2760 h1        1 MOL      0.137052
    163 H74       -12.7400    1.3990   -0.2990 hc        1 MOL      0.046000
    164 H75       -12.3390    0.8840    1.3950 hc        1 MOL      0.046000
    165 H76       -12.0170   -1.4020    0.2880 hc        1 MOL      0.000860
    166 H77       -12.6640   -0.8010   -1.1070 hc        1 MOL      0.000860
    167 N15        -9.4300    2.9890    0.1070 n         1 MOL     -0.143983
    168 C54        -8.6440    4.1160    0.7050 c3        1 MOL     -0.300327
    169 H78        -7.6830    3.7410    1.0560 h1        1 MOL      0.127855
    170 H79        -8.4790    4.8860   -0.0480 h1        1 MOL      0.127855
    171 H80        -9.1950    4.5400    1.5440 h1        1 MOL      0.127855
    172 H81        -9.6530    3.0310   -0.8780 hn        1 MOL      0.181867
    173 Ca1         2.8770    0.2130   -1.0020 Ca        1 MOL      1.740250
    174 O23         3.0140    2.3490   -2.5890 oh        1 MOL     -0.820099
    175 O24         0.5670   -1.9490   -1.5530 oh        1 MOL     -0.820099
    176 H82         2.4360    2.1990   -3.3460 ho        1 MOL      0.403268
    177 H83        -0.2130   -2.3010   -1.9940 ho        1 MOL      0.403268
    178 H84         3.4920    3.1450   -2.8230 ho        1 MOL      0.403268
    179 H85         1.2490   -1.9850   -2.2200 ho        1 MOL      0.403268
    180 O25         0.6870    0.7780   -2.2720 oh        1 MOL     -0.820099
    181 H86        -0.0360    0.1480   -2.2100 ho        1 MOL      0.403268
    182 H87         0.2470    1.6210   -2.3680 ho        1 MOL      0.403268
@<TRIPOS>BOND
     1    1    2 1   
     2    1    4 1   
     3    1    5 1   
     4    1    6 1   
     5    2    3 2   
     6    2    7 1   
     7    7    8 1   
     8    7   15 1   
     9    8    9 1   
    10    8   11 1   
    11    8   16 1   
    12    9   10 2   
    13    9   19 1   
    14   11   12 1   
    15   11   17 1   
    16   11   18 1   
    17   12   13 1   
    18   12   14 1   
    19   19   20 1   
    20   19   28 1   
    21   20   21 1   
    22   20   23 1   
    23   20   29 1   
    24   21   22 2   
    25   21   41 1   
    26   23   24 1   
    27   23   30 1   
    28   23   31 1   
    29   24   25 1   
    30   24   32 1   
    31   24   33 1   
    32   25   26 1   
    33   25   34 1   
    34   25   35 1   
    35   26   27 1   
    36   26   36 1   
    37   26   37 1   
    38   27   38 1   
    39   27   39 1   
    40   27   40 1   
    41   41   42 1   
    42   41   49 1   
    43   42   43 1   
    44   42   45 1   
    45   42   50 1   
    46   43   44 2   
    47   43   53 1   
    48   45   46 1   
    49   45   51 1   
    50   45   52 1   
    51   46   47 1   
    52   46   48 1   
    53   53   54 1   
    54   53   57 1   
    55   54   55 1   
    56   54   58 1   
    57   54   59 1   
    58   55   56 2   
    59   55   60 1   
    60   60   61 1   
    61   60   68 1   
    62   61   62 1   
    63   61   64 1   
    64   61   69 1   
    65   62   63 2   
    66   62   74 1   
    67   64   65 1   
    68   64   70 1   
    69   64   71 1   
    70   65   66 1   
    71   65   67 2   
    72   66   72 1   
    73   66   73 1   
    74   74   75 1   
    75   74   78 1   
    76   75   76 1   
    77   75   79 1   
    78   75   80 1   
    79   76   77 2   
    80   76   81 1   
    81   81   82 1   
    82   81   93 1   
    83   82   83 1   
    84   82   85 1   
    85   82   94 1   
    86   83   84 2   
    87   83  102 1   
    88   85   86 1   
    89   85   95 1   
    90   85   96 1   
    91   86   87 ar  
    92   86   88 ar  
    93   87   89 ar  
    94   87   97 1   
    95   88   90 ar  
    96   88   98 1   
    97   89   91 ar  
    98   89   99 1   
    99   90   91 ar  
   100   90  100 1   
   101   91   92 1   
   102   92  101 1   
   103  102  103 1   
   104  102  110 1   
   105  103  104 1   
   106  103  106 1   
   107  103  111 1   
   108  104  105 2   
   109  104  121 1   
   110  106  107 1   
   111  106  108 1   
   112  106  112 1   
   113  107  109 1   
   114  107  113 1   
   115  107  114 1   
   116  108  115 1   
   117  108  116 1   
   118  108  117 1   
   119  109  118 1   
   120  109  119 1   
   121  109  120 1   
   122  121  122 1   
   123  121  127 1   
   124  122  123 1   
   125  122  125 1   
   126  122  128 1   
   127  123  124 2   
   128  123  132 1   
   129  125  126 1   
   130  125  129 1   
   131  125  130 1   
   132  126  131 1   
   133  132  133 1   
   134  132  137 1   
   135  133  134 1   
   136  133  136 1   
   137  133  138 1   
   138  134  135 2   
   139  134  142 1   
   140  136  139 1   
   141  136  140 1   
   142  136  141 1   
   143  142  143 1   
   144  142  147 1   
   145  143  144 1   
   146  143  146 1   
   147  143  148 1   
   148  144  145 2   
   149  144  152 1   
   150  146  149 1   
   151  146  150 1   
   152  146  151 1   
   153  152  153 1   
   154  152  161 1   
   155  153  154 1   
   156  153  156 1   
   157  153  162 1   
   158  154  155 2   
   159  154  167 1   
   160  156  157 1   
   161  156  163 1   
   162  156  164 1   
   163  157  158 1   
   164  157  165 1   
   165  157  166 1   
   166  158  159 1   
   167  158  160 1   
   168  167  168 1   
   169  167  172 1   
   170  168  169 1   
   171  168  170 1   
   172  168  171 1   
   173  174  176 1   
   174  174  178 1   
   175  175  177 1   
   176  175  179 1   
   177  180  181 1   
   178  180  182 1   
@<TRIPOS>SUBSTRUCTURE
     1 MOL         1 TEMP              0 ****  ****    0 ROOT
