@<TRIPOS>MOLECULE
MOL
  189   185     1     0     0
SMALL
resp


@<TRIPOS>ATOM
      1 C1          4.1980    3.8520   -3.8290 c3        1 MOL     -0.424237
      2 C2          4.9140    3.0630   -2.7300 c         1 MOL      0.900625
      3 O1          4.3240    2.8820   -1.6590 o         1 MOL     -0.671741
      4 H1          3.4790    4.5330   -3.3760 hc        1 MOL      0.097877
      5 H2          4.9290    4.4240   -4.4010 hc        1 MOL      0.097877
      6 H3          3.6770    3.1620   -4.4920 hc        1 MOL      0.097877
      7 N1          6.1790    2.6840   -2.9580 n         1 MOL     -0.920815
      8 C3          6.8710    1.5600   -2.3380 c3        1 MOL      0.611461
      9 C4          5.9640    0.4050   -1.8590 c         1 MOL      0.048347
     10 O2          5.5020    0.3810   -0.7200 o         1 MOL     -0.460338
     11 C5          7.9090    2.0010   -1.2820 c3        1 MOL     -0.178028
     12 C6          7.5880    3.2620   -0.5400 c         1 MOL      0.748612
     13 O3          6.7100    3.2010    0.3920 o         1 MOL     -0.724132
     14 O4          8.2010    4.3320   -0.6540 o         1 MOL     -0.724132
     15 H4          6.6270    3.2480   -3.6660 hn        1 MOL      0.377319
     16 H5          7.4290    1.1050   -3.1630 h1        1 MOL     -0.030946
     17 H6          8.7490    2.0960   -1.9650 hc        1 MOL      0.005148
     18 H7          8.1500    1.2000   -0.5820 hc        1 MOL      0.005148
     19 N2          5.6500   -0.4900   -2.7770 n         1 MOL     -0.344209
     20 C7          4.6740   -1.6160   -2.7200 c3        1 MOL      0.006829
     21 C8          5.2870   -2.8110   -1.8920 c         1 MOL      0.304371
     22 O5          5.2160   -4.0000   -2.2690 o         1 MOL     -0.529393
     23 C9          3.2520   -1.1800   -2.2960 c3        1 MOL      0.210931
     24 C10         2.2640   -2.3270   -2.0500 c3        1 MOL     -0.009482
     25 C11         2.6720   -0.2130   -3.3370 c3        1 MOL     -0.233984
     26 C12         2.1280   -3.1890   -3.3260 c3        1 MOL     -0.437912
     27 H8          5.8610   -0.3220   -3.7470 hn        1 MOL      0.267896
     28 H9          4.5780   -1.7980   -3.7950 h1        1 MOL      0.062101
     29 H10         3.3470   -0.7650   -1.2910 hc        1 MOL     -0.001197
     30 H11         1.2950   -1.9260   -1.7510 hc        1 MOL      0.086217
     31 H12         2.5640   -2.8830   -1.1620 hc        1 MOL      0.086217
     32 H13         1.5800   -0.1110   -3.3150 hc        1 MOL      0.050672
     33 H14         3.0700    0.7760   -3.1590 hc        1 MOL      0.050672
     34 H15         2.8830   -0.4800   -4.3690 hc        1 MOL      0.050672
     35 H16         1.6030   -2.5490   -4.0350 hc        1 MOL      0.102310
     36 H17         3.0690   -3.4950   -3.7770 hc        1 MOL      0.102310
     37 H18         1.5170   -4.0580   -3.0640 hc        1 MOL      0.102310
     38 N3          5.6630   -2.5010   -0.6370 n         1 MOL      0.000507
     39 C13         6.5710   -3.3980    0.0560 c3        1 MOL     -0.003954
     40 C14         6.0360   -4.7430    0.5170 c         1 MOL      0.628921
     41 O6          6.6820   -5.7930    0.4270 o         1 MOL     -0.596640
     42 C15         7.3590   -2.7150    1.1880 c3        1 MOL     -0.316411
     43 C16         8.2620   -1.4850    0.7580 c         1 MOL      0.756863
     44 O7          8.8810   -1.5500   -0.3240 o         1 MOL     -0.697757
     45 O8          8.4300   -0.4760    1.5220 o         1 MOL     -0.697757
     46 H19         5.5750   -1.5310   -0.3600 hn        1 MOL      0.295506
     47 H20         7.3130   -3.6910   -0.6940 h1        1 MOL      0.054243
     48 H21         8.0760   -3.4660    1.5250 hc        1 MOL      0.082863
     49 H22         6.8170   -2.5810    2.1300 hc        1 MOL      0.082863
     50 N4          4.7790   -4.9020    1.0080 n         1 MOL     -0.614537
     51 C17         3.9530   -3.8300    1.6600 c3        1 MOL      0.107525
     52 C18         4.4630   -3.3530    3.0360 c         1 MOL      0.432781
     53 O9          5.2930   -3.9950    3.6990 o         1 MOL     -0.531183
     54 H23         4.5400   -5.8760    1.0940 hn        1 MOL      0.324211
     55 H24         2.9080   -4.1350    1.7440 h1        1 MOL      0.063440
     56 H25         3.9210   -2.9340    1.0390 h1        1 MOL      0.063440
     57 N5          4.0180   -2.2110    3.5970 n         1 MOL     -0.362034
     58 C19         2.7510   -1.5250    3.2730 c3        1 MOL      0.004743
     59 C20         2.5980   -0.9230    1.8650 c         1 MOL      0.027530
     60 O10         3.5290   -0.4410    1.2210 o         1 MOL     -0.597663
     61 C21         2.3890   -0.5190    4.3260 c3        1 MOL     -0.055945
     62 C22         3.4460    0.4810    4.4900 c         1 MOL      0.860025
     63 O11         4.1170    0.3000    5.5130 o         1 MOL     -0.741231
     64 O12         3.4600    1.3980    3.7260 o         1 MOL     -0.741231
     65 H26         4.3670   -1.9810    4.5170 hn        1 MOL      0.266609
     66 H27         1.9840   -2.2670    3.5270 h1        1 MOL      0.086989
     67 H28         2.1400   -0.9830    5.2860 hc        1 MOL     -0.003634
     68 H29         1.4720   -0.0210    4.0290 hc        1 MOL     -0.003634
     69 N6          1.4190   -0.7870    1.2970 n         1 MOL     -0.064590
     70 C23         0.1500   -1.3350    1.6530 c3        1 MOL     -0.054486
     71 C24        -0.1190   -2.7970    1.2120 c         1 MOL      0.383802
     72 O13         0.7940   -3.5690    0.9510 o         1 MOL     -0.476296
     73 H30         1.4990   -0.2850    0.4270 hn        1 MOL      0.163601
     74 H31        -0.5900   -0.6330    1.2490 h1        1 MOL      0.079051
     75 H32         0.0260   -1.4150    2.7330 h1        1 MOL      0.079051
     76 N7         -1.4330   -3.0400    1.1020 n         1 MOL     -0.119589
     77 C25        -1.9910   -4.4100    0.8320 c3        1 MOL     -0.161379
     78 C26        -2.6360   -4.5110   -0.5450 c         1 MOL      0.655320
     79 O14        -2.8800   -5.6440   -0.9700 o         1 MOL     -0.554903
     80 C27        -2.9260   -4.7720    2.0370 c3        1 MOL      0.088156
     81 C28        -4.2530   -4.0260    2.0450 c3        1 MOL     -0.305174
     82 C29        -4.1200   -2.5340    1.9350 c         1 MOL      0.470877
     83 N8         -3.7180   -1.9330    2.9970 n         1 MOL     -0.747769
     84 O15        -4.1750   -1.9290    0.9570 o         1 MOL     -0.218678
     85 H33        -2.0470   -2.2740    1.3220 hn        1 MOL      0.073555
     86 H34        -1.1040   -5.0530    0.7970 h1        1 MOL      0.126943
     87 H35        -2.3830   -4.4980    2.9410 hc        1 MOL      0.020123
     88 H36        -3.2170   -5.8260    2.0660 hc        1 MOL      0.020123
     89 H37        -4.6460   -4.2790    3.0180 hc        1 MOL      0.105553
     90 H38        -4.8770   -4.4490    1.2530 hc        1 MOL      0.105553
     91 H39        -3.6560   -2.4420    3.8690 hn        1 MOL      0.377401
     92 H40        -3.4240   -0.9630    2.9460 hn        1 MOL      0.377401
     93 N9         -2.7240   -3.4220   -1.3620 n         1 MOL     -0.480141
     94 C30        -3.3290   -3.4250   -2.7050 c3        1 MOL      0.020269
     95 C31        -4.5990   -2.6120   -2.8840 c         1 MOL      0.391995
     96 O16        -5.0210   -2.4360   -3.9940 o         1 MOL     -0.536969
     97 C32        -2.2950   -3.1740   -3.8380 c3        1 MOL      0.250177
     98 C33        -1.3040   -4.3600   -3.8510 c3        1 MOL     -0.271167
     99 C34        -1.4890   -1.8200   -3.6100 c3        1 MOL     -0.271167
    100 H41        -2.4350   -2.5270   -0.9940 hn        1 MOL      0.225618
    101 H42        -3.7560   -4.4250   -2.8030 h1        1 MOL      0.084433
    102 H43        -2.8210   -3.1600   -4.7850 hc        1 MOL     -0.000934
    103 H44        -1.9200   -5.2300   -4.0570 hc        1 MOL      0.058017
    104 H45        -0.6640   -4.2320   -4.7270 hc        1 MOL      0.058017
    105 H46        -0.6050   -4.3780   -3.0040 hc        1 MOL      0.058017
    106 H47        -2.2670   -1.0800   -3.4290 hc        1 MOL      0.058017
    107 H48        -0.9090   -1.9010   -2.6930 hc        1 MOL      0.058017
    108 H49        -0.8010   -1.5590   -4.4150 hc        1 MOL      0.058017
    109 N10        -5.2010   -2.2220   -1.7620 n         1 MOL     -0.108720
    110 C35        -6.5530   -1.6720   -1.7470 c3        1 MOL     -0.105635
    111 C36        -6.7140   -0.1970   -1.3490 c         1 MOL      0.669834
    112 O17        -7.6430    0.4470   -1.7020 o         1 MOL     -0.587526
    113 C37        -7.3820   -2.5400   -0.8590 c3        1 MOL     -0.126532
    114 C38        -7.4620   -3.9910   -1.1460 c         1 MOL      0.578704
    115 N11        -7.6340   -4.3330   -2.3860 n         1 MOL     -0.710119
    116 O18        -7.4820   -4.8360   -0.2620 o         1 MOL     -0.562525
    117 H50        -4.7330   -2.4300   -0.8890 hn        1 MOL      0.099496
    118 H51        -6.9230   -1.6870   -2.7790 h1        1 MOL      0.074680
    119 H52        -8.3920   -2.1310   -0.9250 hc        1 MOL      0.072077
    120 H53        -6.9490   -2.4370    0.1380 hc        1 MOL      0.072077
    121 H54        -7.6280   -3.7290   -3.1890 hn        1 MOL      0.343951
    122 H55        -7.9520   -5.2850   -2.5030 hn        1 MOL      0.343951
    123 N12        -5.8210    0.3540   -0.5570 n         1 MOL     -0.466064
    124 C39        -5.9800    1.6660   -0.0170 c3        1 MOL      0.357238
    125 C40        -4.7150    2.5450    0.0480 c         1 MOL      0.330048
    126 O19        -3.6250    1.9910   -0.0130 o         1 MOL     -0.406021
    127 C41        -6.5320    1.5000    1.3570 c3        1 MOL     -0.207346
    128 C42        -7.9270    0.9120    1.4940 ca        1 MOL      0.019652
    129 C43        -9.0490    1.6480    1.1470 ca        1 MOL     -0.082732
    130 C44        -8.0260   -0.3280    2.0910 ca        1 MOL     -0.082732
    131 C45       -10.3430    1.1360    1.4760 ca        1 MOL     -0.325249
    132 C46        -9.2640   -0.8130    2.4790 ca        1 MOL     -0.325249
    133 C47       -10.4080   -0.1020    2.0670 ca        1 MOL      0.398943
    134 O20       -11.5610   -0.6140    2.4220 oh        1 MOL     -0.503728
    135 H56        -5.1170   -0.2100   -0.1010 hn        1 MOL      0.058612
    136 H57        -6.7190    2.2020   -0.6140 h1        1 MOL     -0.006035
    137 H58        -6.6050    2.5200    1.7460 hc        1 MOL      0.086538
    138 H59        -5.8110    0.8710    1.8790 hc        1 MOL      0.086538
    139 H60        -8.9030    2.5910    0.6350 ha        1 MOL      0.112890
    140 H61        -7.0950   -0.8450    2.2820 ha        1 MOL      0.112890
    141 H62       -11.2060    1.7230    1.2250 ha        1 MOL      0.150242
    142 H63        -9.3320   -1.7410    3.0170 ha        1 MOL      0.150242
    143 H64       -12.2700    0.0400    2.4500 ho        1 MOL      0.358474
    144 N13        -4.8520    3.8600    0.1780 n         1 MOL     -0.465286
    145 C48        -3.7970    4.8560    0.4120 c3        1 MOL     -0.102833
    146 C49        -2.6180    5.0650   -0.6110 c         1 MOL      0.238577
    147 O21        -1.9480    6.0570   -0.6110 o         1 MOL     -0.472609
    148 C50        -3.2390    4.6790    1.8890 c3        1 MOL      0.183507
    149 C51        -4.3010    4.6640    2.9180 c3        1 MOL     -0.153129
    150 C52        -3.7670    4.9680    4.3840 c         1 MOL      0.542300
    151 O22        -3.1800    3.9970    4.9910 o         1 MOL     -0.672956
    152 O23        -3.5440    6.1750    4.6500 o         1 MOL     -0.672956
    153 H65        -5.8110    4.1820    0.1560 hn        1 MOL      0.305664
    154 H66        -4.3250    5.8040    0.3650 h1        1 MOL      0.113504
    155 H67        -2.7320    5.6200    2.0910 hc        1 MOL      0.052340
    156 H68        -2.5790    3.8140    1.9540 hc        1 MOL      0.052340
    157 H69        -5.0330    3.8520    2.9840 hc        1 MOL     -0.030114
    158 H70        -4.9970    5.4770    2.7110 hc        1 MOL     -0.030114
    159 N14        -2.2320    4.0770   -1.3960 n         1 MOL      0.073434
    160 C53        -1.0880    4.0890   -2.2780 c3        1 MOL     -0.173329
    161 C54        -1.4370    4.6130   -3.6420 c         1 MOL      0.526275
    162 O24        -0.6470    5.2320   -4.3410 o         1 MOL     -0.553127
    163 C55        -0.5050    2.6450   -2.4290 c3        1 MOL     -0.036093
    164 C56        -0.1150    2.1010   -1.0420 c3        1 MOL      0.401904
    165 C57         1.0530    2.7530   -0.2620 c         1 MOL      0.458413
    166 O25         1.9250    2.0760    0.3950 o         1 MOL     -0.582922
    167 O26         1.0530    3.9630   -0.1510 o         1 MOL     -0.582922
    168 H71        -2.6860    3.1900   -1.2640 hn        1 MOL      0.110006
    169 H72        -0.3180    4.8030   -1.9960 h1        1 MOL      0.146409
    170 H73         0.3730    2.6710   -3.0730 hc        1 MOL     -0.002620
    171 H74        -1.1900    1.9760   -2.9680 hc        1 MOL     -0.002620
    172 H75         0.2220    1.0710   -1.1890 hc        1 MOL     -0.146111
    173 H76        -1.0310    1.9930   -0.4540 hc        1 MOL     -0.146111
    174 N15        -2.6990    4.4540   -4.0240 n         1 MOL     -0.282374
    175 C58        -3.3240    5.0620   -5.2050 c3        1 MOL     -0.192996
    176 H77        -3.8720    5.9560   -4.9070 h1        1 MOL      0.085127
    177 H78        -2.5520    5.3330   -5.9260 h1        1 MOL      0.085127
    178 H79        -4.0120    4.3490   -5.6600 h1        1 MOL      0.085127
    179 H80        -3.3570    4.0400   -3.3830 hn        1 MOL      0.193673
    180 Ca1         4.3660    2.1100    1.1700 Ca        1 MOL      1.814201
    181 O27         3.4800    4.5880    0.6490 oh        1 MOL     -0.839082
    182 H81         3.6930    5.3290    0.0830 ho        1 MOL      0.389519
    183 H82         2.5920    4.3210    0.3860 ho        1 MOL      0.389519
    184 O28         5.3150    3.6340    3.2480 oh        1 MOL     -0.839082
    185 H83         6.2250    3.9040    3.1010 ho        1 MOL      0.389519
    186 H84         5.2370    3.5660    4.1970 ho        1 MOL      0.389519
    187 O29         6.2610    0.8030    2.4480 oh        1 MOL     -0.839082
    188 H85         6.1780    0.5130    3.3570 ho        1 MOL      0.389519
    189 H86         7.0050    0.2980    2.0980 ho        1 MOL      0.389519
@<TRIPOS>BOND
     1    1    2 1   
     2    1    4 1   
     3    1    5 1   
     4    1    6 1   
     5    2    3 2   
     6    2    7 1   
     7    7    8 1   
     8    7   15 1   
     9    8    9 1   
    10    8   11 1   
    11    8   16 1   
    12    9   10 2   
    13    9   19 1   
    14   11   12 1   
    15   11   17 1   
    16   11   18 1   
    17   12   13 1   
    18   12   14 1   
    19   19   20 1   
    20   19   27 1   
    21   20   21 1   
    22   20   23 1   
    23   20   28 1   
    24   21   22 2   
    25   21   38 1   
    26   23   24 1   
    27   23   25 1   
    28   23   29 1   
    29   24   26 1   
    30   24   30 1   
    31   24   31 1   
    32   25   32 1   
    33   25   33 1   
    34   25   34 1   
    35   26   35 1   
    36   26   36 1   
    37   26   37 1   
    38   38   39 1   
    39   38   46 1   
    40   39   40 1   
    41   39   42 1   
    42   39   47 1   
    43   40   41 2   
    44   40   50 1   
    45   42   43 1   
    46   42   48 1   
    47   42   49 1   
    48   43   44 1   
    49   43   45 1   
    50   50   51 1   
    51   50   54 1   
    52   51   52 1   
    53   51   55 1   
    54   51   56 1   
    55   52   53 2   
    56   52   57 1   
    57   57   58 1   
    58   57   65 1   
    59   58   59 1   
    60   58   61 1   
    61   58   66 1   
    62   59   60 2   
    63   59   69 1   
    64   61   62 1   
    65   61   67 1   
    66   61   68 1   
    67   62   63 1   
    68   62   64 1   
    69   69   70 1   
    70   69   73 1   
    71   70   71 1   
    72   70   74 1   
    73   70   75 1   
    74   71   72 2   
    75   71   76 1   
    76   76   77 1   
    77   76   85 1   
    78   77   78 1   
    79   77   80 1   
    80   77   86 1   
    81   78   79 2   
    82   78   93 1   
    83   80   81 1   
    84   80   87 1   
    85   80   88 1   
    86   81   82 1   
    87   81   89 1   
    88   81   90 1   
    89   82   83 1   
    90   82   84 2   
    91   83   91 1   
    92   83   92 1   
    93   93   94 1   
    94   93  100 1   
    95   94   95 1   
    96   94   97 1   
    97   94  101 1   
    98   95   96 2   
    99   95  109 1   
   100   97   98 1   
   101   97   99 1   
   102   97  102 1   
   103   98  103 1   
   104   98  104 1   
   105   98  105 1   
   106   99  106 1   
   107   99  107 1   
   108   99  108 1   
   109  109  110 1   
   110  109  117 1   
   111  110  111 1   
   112  110  113 1   
   113  110  118 1   
   114  111  112 2   
   115  111  123 1   
   116  113  114 1   
   117  113  119 1   
   118  113  120 1   
   119  114  115 1   
   120  114  116 2   
   121  115  121 1   
   122  115  122 1   
   123  123  124 1   
   124  123  135 1   
   125  124  125 1   
   126  124  127 1   
   127  124  136 1   
   128  125  126 2   
   129  125  144 1   
   130  127  128 1   
   131  127  137 1   
   132  127  138 1   
   133  128  129 ar  
   134  128  130 ar  
   135  129  131 ar  
   136  129  139 1   
   137  130  132 ar  
   138  130  140 1   
   139  131  133 ar  
   140  131  141 1   
   141  132  133 ar  
   142  132  142 1   
   143  133  134 1   
   144  134  143 1   
   145  144  145 1   
   146  144  153 1   
   147  145  146 1   
   148  145  148 1   
   149  145  154 1   
   150  146  147 2   
   151  146  159 1   
   152  148  149 1   
   153  148  155 1   
   154  148  156 1   
   155  149  150 1   
   156  149  157 1   
   157  149  158 1   
   158  150  151 1   
   159  150  152 1   
   160  159  160 1   
   161  159  168 1   
   162  160  161 1   
   163  160  163 1   
   164  160  169 1   
   165  161  162 2   
   166  161  174 1   
   167  163  164 1   
   168  163  170 1   
   169  163  171 1   
   170  164  165 1   
   171  164  172 1   
   172  164  173 1   
   173  165  166 1   
   174  165  167 1   
   175  174  175 1   
   176  174  179 1   
   177  175  176 1   
   178  175  177 1   
   179  175  178 1   
   180  181  182 1   
   181  181  183 1   
   182  184  185 1   
   183  184  186 1   
   184  187  188 1   
   185  187  189 1   
@<TRIPOS>SUBSTRUCTURE
     1 MOL         1 TEMP              0 ****  ****    0 ROOT
