@<TRIPOS>MOLECULE
MOL
  186   183     1     0     0
SMALL
resp


@<TRIPOS>ATOM
      1 C1        -12.5630    4.3150    4.3730 c3        1 MOL     -0.461861
      2 C2        -12.4660    3.4490    3.0360 c         1 MOL      0.672074
      3 O1        -13.3650    2.6690    2.7780 o         1 MOL     -0.593275
      4 H1        -11.6170    4.2560    4.9120 hc        1 MOL      0.131179
      5 H2        -12.7730    5.3540    4.1190 hc        1 MOL      0.131179
      6 H3        -13.3640    3.9250    5.0010 hc        1 MOL      0.131179
      7 N1        -11.4650    3.6060    2.1800 n         1 MOL     -0.319422
      8 C3        -11.3780    3.1430    0.8110 c3        1 MOL      0.188792
      9 C4        -10.1550    2.2420    0.6440 c         1 MOL      0.099753
     10 O2         -9.0690    2.3640    1.2360 o         1 MOL     -0.549829
     11 C5        -11.2530    4.2190   -0.2630 c3        1 MOL     -0.278858
     12 C6        -10.6120    5.5130    0.1500 c         1 MOL      0.814410
     13 O3         -9.3600    5.5440    0.2880 o         1 MOL     -0.742303
     14 O4        -11.3510    6.5080    0.5000 o         1 MOL     -0.742303
     15 H4        -10.8320    4.3510    2.4540 hn        1 MOL      0.152672
     16 H5        -12.1950    2.4760    0.5690 h1        1 MOL      0.064284
     17 H6        -12.2980    4.3890   -0.5050 hc        1 MOL      0.093452
     18 H7        -10.6400    3.8140   -1.0760 hc        1 MOL      0.093452
     19 N2        -10.3130    1.1300   -0.0810 n         1 MOL      0.113818
     20 C7         -9.6540   -0.2140    0.0300 c3        1 MOL     -0.440043
     21 C8         -8.2540   -0.2970   -0.5990 c         1 MOL      0.493091
     22 O5         -7.7520   -1.3980   -0.7580 o         1 MOL     -0.452647
     23 C9        -10.5880   -1.3250   -0.3870 c3        1 MOL     -0.253536
     24 C10       -11.0470   -1.1300   -1.8150 c3        1 MOL      0.003266
     25 C11       -11.8240   -2.3120   -2.2960 c3        1 MOL     -0.114994
     26 C12       -12.1790   -2.1010   -3.7520 c3        1 MOL     -0.009619
     27 N3        -13.0040   -3.2530   -4.1900 n4        1 MOL     -0.215398
     28 H8        -11.0650    1.2190   -0.7590 hn        1 MOL      0.097117
     29 H9         -9.4690   -0.3460    1.0970 h1        1 MOL      0.266320
     30 H10       -11.4840   -1.2770    0.2260 hc        1 MOL      0.123897
     31 H11       -10.0690   -2.2890   -0.3180 hc        1 MOL      0.123897
     32 H12       -10.2160   -0.9810   -2.5000 hc        1 MOL      0.062584
     33 H13       -11.7880   -0.3280   -1.7300 hc        1 MOL      0.062584
     34 H14       -12.5880   -2.5950   -1.5760 hc        1 MOL      0.081107
     35 H15       -11.1440   -3.1650   -2.2820 hc        1 MOL      0.081107
     36 H16       -11.2600   -2.0500   -4.3460 hx        1 MOL      0.099094
     37 H17       -12.7050   -1.1410   -3.7070 hx        1 MOL      0.099094
     38 H18       -12.6340   -4.1330   -3.8440 hn        1 MOL      0.272056
     39 H19       -13.9680   -3.1740   -3.9220 hn        1 MOL      0.272056
     40 H20       -13.0170   -3.2910   -5.2020 hn        1 MOL      0.272056
     41 N4         -7.6070    0.8790   -0.8080 n         1 MOL      0.082595
     42 C13        -6.1910    0.9590   -1.2820 c3        1 MOL     -0.580374
     43 C14        -5.3180    1.4400   -0.1210 c         1 MOL      0.842092
     44 O6         -5.8320    2.2080    0.7040 o         1 MOL     -0.742334
     45 C15        -6.2470    1.8400   -2.5650 c3        1 MOL     -0.023123
     46 C16        -6.8280    3.2870   -2.3230 c         1 MOL      0.535722
     47 O7         -7.0050    4.0750   -3.2270 o         1 MOL     -0.635416
     48 O8         -7.2570    3.6140   -1.1910 o         1 MOL     -0.635416
     49 H21        -8.0640    1.7360   -0.5380 hn        1 MOL      0.061703
     50 H22        -5.7200    0.0590   -1.6670 h1        1 MOL      0.185860
     51 H23        -6.8910    1.3770   -3.3140 hc        1 MOL      0.070563
     52 H24        -5.2820    1.8950   -3.0840 hc        1 MOL      0.070563
     53 N5         -4.0310    1.0830   -0.0710 n         1 MOL     -0.582056
     54 C17        -3.4350   -0.0000   -0.8030 c3        1 MOL      0.145061
     55 C18        -3.6130   -1.4450   -0.2710 c         1 MOL      0.594477
     56 O9         -3.9180   -1.6830    0.9000 o         1 MOL     -0.518335
     57 H25        -3.4940    1.5070    0.6730 hn        1 MOL      0.326710
     58 H26        -2.3550    0.0880   -0.9370 h1        1 MOL      0.048174
     59 H27        -3.7510    0.0600   -1.8530 h1        1 MOL      0.048174
     60 N6         -3.5930   -2.4400   -1.2220 n         1 MOL     -0.716932
     61 C19        -3.9120   -3.8690   -1.0120 c3        1 MOL      0.427593
     62 C20        -2.7630   -4.7800   -1.4270 c         1 MOL      0.398029
     63 O10        -1.9080   -4.4200   -2.2400 o         1 MOL     -0.561435
     64 C21        -5.2070   -4.2340   -1.6310 c3        1 MOL     -0.255272
     65 C22        -5.5330   -5.7320   -1.7000 c         1 MOL      0.615837
     66 O11        -6.0950   -6.0800   -2.7690 o         1 MOL     -0.655420
     67 O12        -5.2250   -6.5790   -0.8120 o         1 MOL     -0.655420
     68 H28        -3.5930   -2.1070   -2.1810 hn        1 MOL      0.307258
     69 H29        -4.0180   -4.0820    0.0530 h1        1 MOL     -0.041375
     70 H30        -5.2520   -3.9050   -2.6650 hc        1 MOL      0.053155
     71 H31        -6.0150   -3.6380   -1.2140 hc        1 MOL      0.053155
     72 N7         -2.6910   -5.9230   -0.8140 n         1 MOL     -0.028839
     73 C23        -1.5880   -6.9440   -0.9780 c3        1 MOL     -0.379211
     74 C24        -0.1850   -6.6280   -0.2580 c         1 MOL      0.578270
     75 O13         0.8260   -7.2980   -0.4910 o         1 MOL     -0.527058
     76 H32        -3.4760   -6.2610   -0.2820 hn        1 MOL      0.143017
     77 H33        -1.3750   -6.9260   -2.0470 h1        1 MOL      0.162649
     78 H34        -2.0080   -7.8870   -0.6310 h1        1 MOL      0.162649
     79 N8         -0.1070   -5.5470    0.6140 n         1 MOL     -0.397071
     80 C25         1.0870   -5.0410    1.3080 c3        1 MOL      0.133431
     81 C26         1.1760   -3.5280    1.3110 c         1 MOL      0.642759
     82 O14         0.1540   -2.8920    1.0470 o         1 MOL     -0.496338
     83 C27         1.1520   -5.5570    2.7440 c3        1 MOL      0.227951
     84 C28        -0.1500   -5.1310    3.5490 c3        1 MOL     -0.292275
     85 O15         1.0410   -6.9420    2.8390 oh        1 MOL     -0.605706
     86 H35        -0.9360   -4.9940    0.7980 hn        1 MOL      0.189716
     87 H36         1.9540   -5.3390    0.7200 h1        1 MOL      0.037256
     88 H37         2.0920   -5.3910    3.2670 h1        1 MOL      0.061328
     89 H38         0.1100   -7.1310    2.9760 ho        1 MOL      0.382211
     90 H39        -0.1370   -5.6600    4.4960 hc        1 MOL      0.073112
     91 H40         0.0110   -4.0570    3.6290 hc        1 MOL      0.073112
     92 H41        -1.0530   -5.3300    2.9760 hc        1 MOL      0.073112
     93 N9          2.4420   -3.0230    1.4610 n         1 MOL     -0.619173
     94 C29         2.9330   -1.7010    0.9000 c3        1 MOL     -0.018188
     95 C30         4.3370   -1.7910    0.1660 c         1 MOL      0.584829
     96 O16         4.6970   -0.9580   -0.6600 o         1 MOL     -0.511810
     97 C31         3.0240   -0.6500    2.0120 c3        1 MOL      0.121312
     98 C32         1.8520   -0.7860    3.0290 c3        1 MOL      0.037368
     99 C33         3.0860    0.7800    1.6280 c3        1 MOL     -0.318121
    100 C34         2.0340    0.1920    4.2280 c3        1 MOL     -0.261542
    101 H42         3.1650   -3.4730    2.0130 hn        1 MOL      0.259418
    102 H43         2.1800   -1.4020    0.1700 h1        1 MOL      0.118545
    103 H44         3.9110   -0.9100    2.5930 hc        1 MOL      0.033284
    104 H45         1.7960   -1.8010    3.4020 hc        1 MOL      0.007831
    105 H46         0.9650   -0.5380    2.4420 hc        1 MOL      0.007831
    106 H47         3.9420    0.8960    0.9640 hc        1 MOL      0.084854
    107 H48         2.1890    1.1310    1.1080 hc        1 MOL      0.084854
    108 H49         3.2840    1.5450    2.3820 hc        1 MOL      0.084854
    109 H50         1.5350   -0.0730    5.1630 hc        1 MOL      0.064046
    110 H51         3.0910    0.2610    4.4880 hc        1 MOL      0.064046
    111 H52         1.5920    1.1610    3.9650 hc        1 MOL      0.064046
    112 N10         5.1230   -2.8860    0.3170 n         1 MOL     -0.548203
    113 C35         6.5370   -2.8960   -0.1470 c3        1 MOL      0.085578
    114 C36         7.5250   -2.6310    1.0200 c         1 MOL      0.559849
    115 O17         7.3400   -2.9840    2.1790 o         1 MOL     -0.539136
    116 C37         6.6760   -4.0710   -1.0530 c3        1 MOL      0.385577
    117 C38         5.9140   -4.0230   -2.4200 c3        1 MOL     -0.413344
    118 O18         8.0590   -4.3460   -1.2470 oh        1 MOL     -0.653275
    119 H53         4.8980   -3.6160    0.9860 hn        1 MOL      0.311644
    120 H54         6.8220   -2.1140   -0.8520 h1        1 MOL      0.096066
    121 H55         6.1690   -4.7990   -0.4170 h1        1 MOL     -0.047436
    122 H56         8.1590   -5.2190   -1.6250 ho        1 MOL      0.405955
    123 H57         6.1450   -4.9840   -2.8910 hc        1 MOL      0.119830
    124 H58         4.8550   -3.8780   -2.2390 hc        1 MOL      0.119830
    125 H59         6.2460   -3.1710   -3.0070 hc        1 MOL      0.119830
    126 N11         8.5690   -1.7940    0.7560 n         1 MOL     -0.484307
    127 C39         9.5560   -1.3750    1.8200 c3        1 MOL     -0.000161
    128 C40        10.0270    0.0280    1.5840 c         1 MOL      0.652988
    129 O19        10.2120    0.7060    2.5530 o         1 MOL     -0.551445
    130 C41        10.7790   -2.3730    1.8710 c3        1 MOL      0.102003
    131 C42        12.0090   -2.0610    2.7550 c3        1 MOL     -0.322260
    132 O20        11.2750   -2.5000    0.5300 oh        1 MOL     -0.594072
    133 H60         8.6900   -1.4450   -0.1790 hn        1 MOL      0.255680
    134 H61         8.9840   -1.4080    2.7440 h1        1 MOL      0.129925
    135 H62        10.3300   -3.3650    1.9990 h1        1 MOL      0.104387
    136 H63        12.0830   -3.0140    0.5900 ho        1 MOL      0.395221
    137 H64        12.6630   -2.9260    2.9040 hc        1 MOL      0.099446
    138 H65        12.6670   -1.3100    2.3160 hc        1 MOL      0.099446
    139 H66        11.6830   -1.8260    3.7710 hc        1 MOL      0.099446
    140 N12        10.2690    0.3410    0.2850 n         1 MOL     -0.572811
    141 C43        10.6420    1.7410   -0.1460 c3        1 MOL      0.107409
    142 C44         9.5890    2.4900   -0.9400 c         1 MOL      0.457468
    143 O21         8.8120    1.9530   -1.7570 o         1 MOL     -0.474698
    144 C45        11.8920    1.7660   -0.9860 c3        1 MOL     -0.123307
    145 C46        12.9610    0.9370   -0.2390 c3        1 MOL      0.079370
    146 C47        14.3700    1.3240   -0.6910 c3        1 MOL     -0.263464
    147 C48        14.3970    1.1540   -2.2620 c3        1 MOL      0.126163
    148 N13        15.6850    1.3500   -2.8820 n4        1 MOL     -0.194652
    149 H67        10.0070   -0.3150   -0.4300 hn        1 MOL      0.347506
    150 H68        10.8190    2.3190    0.7690 h1        1 MOL      0.077842
    151 H69        12.1940    2.8060   -1.0540 hc        1 MOL      0.052563
    152 H70        11.6350    1.3070   -1.9370 hc        1 MOL      0.052563
    153 H71        12.8750   -0.1370   -0.3760 hc        1 MOL      0.040449
    154 H72        12.9530    1.2170    0.8220 hc        1 MOL      0.040449
    155 H73        15.1450    0.8050   -0.1260 hc        1 MOL      0.088852
    156 H74        14.4450    2.3970   -0.4970 hc        1 MOL      0.088852
    157 H75        13.6500    1.8270   -2.6840 hx        1 MOL      0.050905
    158 H76        14.0670    0.1640   -2.5670 hx        1 MOL      0.050905
    159 H77        15.9720    2.2960   -2.6480 hn        1 MOL      0.221407
    160 H78        16.4930    0.8050   -2.6120 hn        1 MOL      0.221407
    161 H79        15.5750    1.3430   -3.8840 hn        1 MOL      0.221407
    162 N14         9.4370    3.7870   -0.5710 n         1 MOL     -0.439146
    163 C49         8.4760    4.6150   -1.3440 c3        1 MOL      0.047935
    164 C50         7.0040    4.2780   -0.9820 c         1 MOL      0.341558
    165 O22         6.1700    3.9190   -1.8460 o         1 MOL     -0.521713
    166 C51         8.8670    6.1280   -1.1570 c3        1 MOL      0.053678
    167 C52         7.9770    7.1050   -1.9400 c3        1 MOL     -0.288338
    168 C53         8.2950    8.6070   -1.5650 c         1 MOL      0.739444
    169 O23         7.3920    9.4460   -1.3910 o         1 MOL     -0.651663
    170 O24         9.4890    8.9280   -1.3080 o         1 MOL     -0.651663
    171 H80         9.9470    4.2340    0.1750 hn        1 MOL      0.254989
    172 H81         8.5800    4.3320   -2.3880 h1        1 MOL      0.095231
    173 H82         9.9170    6.3170   -1.3760 hc        1 MOL      0.006343
    174 H83         8.7100    6.5200   -0.1430 hc        1 MOL      0.006343
    175 H84         6.9390    6.9210   -1.6630 hc        1 MOL      0.067748
    176 H85         8.2190    6.9940   -2.9990 hc        1 MOL      0.067748
    177 N15         6.5830    4.2190    0.2650 n         1 MOL     -0.159042
    178 C54         7.1870    4.9030    1.4290 c3        1 MOL     -0.334475
    179 H86         8.0650    4.3490    1.7600 h1        1 MOL      0.130038
    180 H87         7.4810    5.9140    1.1460 h1        1 MOL      0.130038
    181 H88         6.4610    4.9500    2.2410 h1        1 MOL      0.130038
    182 H89         5.6920    3.8030    0.4600 hn        1 MOL      0.252536
    183 Ca1        -7.2180    4.3110    1.2890 Ca        1 MOL      1.727373
    184 O25        -7.1190    2.7960    3.4900 oh        1 MOL     -0.842511
    185 H90        -7.0150    1.8580    3.6050 ho        1 MOL      0.432104
    186 H91        -7.4160    3.1180    4.3420 ho        1 MOL      0.432104
@<TRIPOS>BOND
     1    1    2 1   
     2    1    4 1   
     3    1    5 1   
     4    1    6 1   
     5    2    3 2   
     6    2    7 1   
     7    7    8 1   
     8    7   15 1   
     9    8    9 1   
    10    8   11 1   
    11    8   16 1   
    12    9   10 2   
    13    9   19 1   
    14   11   12 1   
    15   11   17 1   
    16   11   18 1   
    17   12   13 1   
    18   12   14 1   
    19   19   20 1   
    20   19   28 1   
    21   20   21 1   
    22   20   23 1   
    23   20   29 1   
    24   21   22 2   
    25   21   41 1   
    26   23   24 1   
    27   23   30 1   
    28   23   31 1   
    29   24   25 1   
    30   24   32 1   
    31   24   33 1   
    32   25   26 1   
    33   25   34 1   
    34   25   35 1   
    35   26   27 1   
    36   26   36 1   
    37   26   37 1   
    38   27   38 1   
    39   27   39 1   
    40   27   40 1   
    41   41   42 1   
    42   41   49 1   
    43   42   43 1   
    44   42   45 1   
    45   42   50 1   
    46   43   44 2   
    47   43   53 1   
    48   45   46 1   
    49   45   51 1   
    50   45   52 1   
    51   46   47 1   
    52   46   48 1   
    53   53   54 1   
    54   53   57 1   
    55   54   55 1   
    56   54   58 1   
    57   54   59 1   
    58   55   56 2   
    59   55   60 1   
    60   60   61 1   
    61   60   68 1   
    62   61   62 1   
    63   61   64 1   
    64   61   69 1   
    65   62   63 2   
    66   62   72 1   
    67   64   65 1   
    68   64   70 1   
    69   64   71 1   
    70   65   66 1   
    71   65   67 1   
    72   72   73 1   
    73   72   76 1   
    74   73   74 1   
    75   73   77 1   
    76   73   78 1   
    77   74   75 2   
    78   74   79 1   
    79   79   80 1   
    80   79   86 1   
    81   80   81 1   
    82   80   83 1   
    83   80   87 1   
    84   81   82 2   
    85   81   93 1   
    86   83   84 1   
    87   83   85 1   
    88   83   88 1   
    89   84   90 1   
    90   84   91 1   
    91   84   92 1   
    92   85   89 1   
    93   93   94 1   
    94   93  101 1   
    95   94   95 1   
    96   94   97 1   
    97   94  102 1   
    98   95   96 2   
    99   95  112 1   
   100   97   98 1   
   101   97   99 1   
   102   97  103 1   
   103   98  100 1   
   104   98  104 1   
   105   98  105 1   
   106   99  106 1   
   107   99  107 1   
   108   99  108 1   
   109  100  109 1   
   110  100  110 1   
   111  100  111 1   
   112  112  113 1   
   113  112  119 1   
   114  113  114 1   
   115  113  116 1   
   116  113  120 1   
   117  114  115 2   
   118  114  126 1   
   119  116  117 1   
   120  116  118 1   
   121  116  121 1   
   122  117  123 1   
   123  117  124 1   
   124  117  125 1   
   125  118  122 1   
   126  126  127 1   
   127  126  133 1   
   128  127  128 1   
   129  127  130 1   
   130  127  134 1   
   131  128  129 2   
   132  128  140 1   
   133  130  131 1   
   134  130  132 1   
   135  130  135 1   
   136  131  137 1   
   137  131  138 1   
   138  131  139 1   
   139  132  136 1   
   140  140  141 1   
   141  140  149 1   
   142  141  142 1   
   143  141  144 1   
   144  141  150 1   
   145  142  143 2   
   146  142  162 1   
   147  144  145 1   
   148  144  151 1   
   149  144  152 1   
   150  145  146 1   
   151  145  153 1   
   152  145  154 1   
   153  146  147 1   
   154  146  155 1   
   155  146  156 1   
   156  147  148 1   
   157  147  157 1   
   158  147  158 1   
   159  148  159 1   
   160  148  160 1   
   161  148  161 1   
   162  162  163 1   
   163  162  171 1   
   164  163  164 1   
   165  163  166 1   
   166  163  172 1   
   167  164  165 2   
   168  164  177 1   
   169  166  167 1   
   170  166  173 1   
   171  166  174 1   
   172  167  168 1   
   173  167  175 1   
   174  167  176 1   
   175  168  169 1   
   176  168  170 1   
   177  177  178 1   
   178  177  182 1   
   179  178  179 1   
   180  178  180 1   
   181  178  181 1   
   182  184  185 1   
   183  184  186 1   
@<TRIPOS>SUBSTRUCTURE
     1 MOL         1 TEMP              0 ****  ****    0 ROOT
