@<TRIPOS>MOLECULE
MOL
  189   185     1     0     0
SMALL
resp


@<TRIPOS>ATOM
      1 C1          4.3810    3.9710   -3.7070 c3        1 MOL     -0.374328
      2 C2          5.0360    3.2440   -2.5220 c         1 MOL      0.896186
      3 O1          4.5210    3.2260   -1.3880 o         1 MOL     -0.735147
      4 H1          4.2210    3.2640   -4.5220 hc        1 MOL      0.091732
      5 H2          3.4230    4.3880   -3.3950 hc        1 MOL      0.091732
      6 H3          5.0340    4.7740   -4.0480 hc        1 MOL      0.091732
      7 N1          6.1060    2.5490   -2.8400 n         1 MOL     -0.759720
      8 C3          6.9200    1.6480   -2.1290 c3        1 MOL      0.506906
      9 C4          6.0750    0.4510   -1.6810 c         1 MOL      0.057244
     10 O2          5.7220    0.2310   -0.5220 o         1 MOL     -0.541638
     11 C5          7.8830    2.2440   -1.1800 c3        1 MOL     -0.158536
     12 C6          7.4740    3.4910   -0.4140 c         1 MOL      0.759373
     13 O3          6.6790    3.3110    0.5580 o         1 MOL     -0.737122
     14 O4          7.9420    4.6140   -0.8000 o         1 MOL     -0.737122
     15 H4          6.2920    2.5300   -3.8330 hn        1 MOL      0.304024
     16 H5          7.5930    1.1940   -2.8630 h1        1 MOL     -0.005444
     17 H6          8.7220    2.5850   -1.7800 hc        1 MOL      0.008245
     18 H7          8.1980    1.4590   -0.5010 hc        1 MOL      0.008245
     19 N2          5.7370   -0.3890   -2.6800 n         1 MOL     -0.233892
     20 C7          4.9820   -1.6870   -2.7240 c3        1 MOL     -0.105700
     21 C8          5.7280   -2.8210   -1.9890 c         1 MOL      0.394934
     22 O5          5.9390   -3.9330   -2.5350 o         1 MOL     -0.562591
     23 C9          3.5320   -1.5670   -2.2330 c3        1 MOL      0.420754
     24 C10         2.6230   -2.7810   -2.5650 c3        1 MOL     -0.203854
     25 C11         2.9040   -0.2470   -2.7710 c3        1 MOL     -0.049275
     26 C12         2.4830   -3.2240   -4.0440 c3        1 MOL     -0.174618
     27 H8          6.0410   -0.0570   -3.5780 hn        1 MOL      0.228393
     28 H9          4.8990   -1.8930   -3.7930 h1        1 MOL      0.067113
     29 H10         3.5220   -1.5390   -1.1390 hc        1 MOL     -0.122414
     30 H11         1.6240   -2.6520   -2.1500 hc        1 MOL      0.107138
     31 H12         3.1080   -3.6800   -2.1600 hc        1 MOL      0.107138
     32 H13         1.8490   -0.1340   -2.5010 hc        1 MOL     -0.019568
     33 H14         3.4810    0.6540   -2.5190 hc        1 MOL     -0.019568
     34 H15         2.9940   -0.3000   -3.8530 hc        1 MOL     -0.019568
     35 H16         2.2330   -2.4110   -4.7210 hc        1 MOL      0.028901
     36 H17         3.4190   -3.6590   -4.3940 hc        1 MOL      0.028901
     37 H18         1.7160   -3.9910   -4.1090 hc        1 MOL      0.028901
     38 N3          6.0830   -2.6650   -0.7130 n         1 MOL     -0.109415
     39 C13         6.8720   -3.5600    0.0760 c3        1 MOL     -0.233436
     40 C14         6.1540   -4.8270    0.5830 c         1 MOL      0.652568
     41 O6          6.7950   -5.8790    0.7220 o         1 MOL     -0.625478
     42 C15         7.3980   -2.8560    1.3590 c3        1 MOL     -0.232710
     43 C16         8.0590   -1.4660    1.0950 c         1 MOL      0.774967
     44 O7          8.6900   -1.2230    0.0190 o         1 MOL     -0.697354
     45 O8          7.9290   -0.6540    1.9650 o         1 MOL     -0.697354
     46 H19         5.8210   -1.7600   -0.3390 hn        1 MOL      0.348597
     47 H20         7.7740   -3.8100   -0.4810 h1        1 MOL      0.122897
     48 H21         8.1920   -3.5300    1.6930 hc        1 MOL      0.066768
     49 H22         6.6270   -2.9570    2.1110 hc        1 MOL      0.066768
     50 N4          4.9020   -4.9100    0.8650 n         1 MOL     -0.498168
     51 C17         3.9760   -3.8030    1.0960 c3        1 MOL      0.159754
     52 C18         2.9100   -4.1930    2.1440 c         1 MOL      0.561039
     53 O9          2.6570   -5.3760    2.3570 o         1 MOL     -0.574448
     54 H23         4.5540   -5.8290    1.1000 hn        1 MOL      0.288694
     55 H24         3.4520   -3.5010    0.1890 h1        1 MOL     -0.003971
     56 H25         4.4100   -2.8850    1.5020 h1        1 MOL     -0.003971
     57 N5          2.3610   -3.2750    2.9760 n         1 MOL     -0.557294
     58 C19         2.5950   -1.8630    3.3200 c3        1 MOL      0.495914
     59 C20         2.5280   -0.9750    2.0320 c         1 MOL      0.011712
     60 O10         3.5700   -0.4920    1.5350 o         1 MOL     -0.435200
     61 C21         4.0160   -1.7730    4.0740 c3        1 MOL     -0.396395
     62 C22         4.2500   -0.5090    4.9030 c         1 MOL      0.714883
     63 O11         3.3130    0.2800    5.0430 o         1 MOL     -0.687443
     64 O12         5.3940   -0.1500    5.2420 o         1 MOL     -0.687443
     65 H26         1.8290   -3.7430    3.6960 hn        1 MOL      0.269220
     66 H27         1.9080   -1.4720    4.0590 h1        1 MOL     -0.010567
     67 H28         4.8480   -1.8120    3.3750 hc        1 MOL      0.093630
     68 H29         4.0260   -2.6130    4.7640 hc        1 MOL      0.093630
     69 N6          1.3610   -0.8660    1.3690 n         1 MOL     -0.109545
     70 C23         0.0240   -1.5010    1.6260 c3        1 MOL     -0.092500
     71 C24        -0.2540   -2.7960    0.8540 c         1 MOL      0.529851
     72 O13         0.5740   -3.3670    0.1470 o         1 MOL     -0.488130
     73 H30         1.4140   -0.2130    0.5910 hn        1 MOL      0.196466
     74 H31        -0.6930   -0.7450    1.3190 h1        1 MOL      0.064321
     75 H32        -0.1350   -1.7690    2.6690 h1        1 MOL      0.064321
     76 N7         -1.5470   -3.2440    0.8390 n         1 MOL     -0.461540
     77 C25        -2.1530   -4.4240    0.0730 c3        1 MOL      0.050573
     78 C26        -2.6910   -4.1160   -1.4150 c         1 MOL      0.315085
     79 O14        -2.9740   -5.0590   -2.1820 o         1 MOL     -0.480301
     80 C27        -3.2990   -5.0340    0.8520 c3        1 MOL      0.061615
     81 C28        -4.6250   -4.2390    0.9140 c3        1 MOL     -0.141187
     82 C29        -5.6540   -4.8980    1.9000 c         1 MOL      0.657638
     83 N8         -6.8050   -4.9530    1.4680 n         1 MOL     -0.698205
     84 O15        -5.3530   -5.3650    2.9820 o         1 MOL     -0.598061
     85 H33        -2.1540   -2.8440    1.5430 hn        1 MOL      0.269605
     86 H34        -1.3750   -5.1850   -0.0020 h1        1 MOL      0.119892
     87 H35        -3.0500   -5.2500    1.8950 hc        1 MOL      0.006223
     88 H36        -3.4970   -5.9700    0.3260 hc        1 MOL      0.006223
     89 H37        -4.9730   -4.0920   -0.1080 hc        1 MOL      0.026313
     90 H38        -4.4630   -3.2530    1.3400 hc        1 MOL      0.026313
     91 H39        -6.8970   -4.6140    0.5240 hn        1 MOL      0.339616
     92 H40        -7.5610   -5.3750    1.9900 hn        1 MOL      0.339616
     93 N9         -2.8860   -2.8070   -1.8120 n         1 MOL     -0.109220
     94 C30        -3.2630   -2.4370   -3.2110 c3        1 MOL     -0.151621
     95 C31        -4.5570   -1.6450   -3.3300 c         1 MOL      0.485926
     96 O16        -5.0770   -1.3910   -4.3670 o         1 MOL     -0.534196
     97 C32        -2.1050   -1.7140   -3.9260 c3        1 MOL      0.049598
     98 C33        -0.9620   -2.8020   -4.1240 c3        1 MOL     -0.229598
     99 C34        -1.4660   -0.5420   -3.1050 c3        1 MOL     -0.229598
    100 H41        -2.5870   -2.1000   -1.1510 hn        1 MOL      0.137039
    101 H42        -3.4040   -3.3470   -3.7950 h1        1 MOL      0.152183
    102 H43        -2.3770   -1.2500   -4.8800 hc        1 MOL      0.053636
    103 H44        -1.3710   -3.5400   -4.8090 hc        1 MOL      0.071440
    104 H45        -0.0810   -2.3060   -4.5370 hc        1 MOL      0.071440
    105 H46        -0.7970   -3.3000   -3.1740 hc        1 MOL      0.071440
    106 H47        -2.1710   -0.0170   -2.4590 hc        1 MOL      0.071440
    107 H48        -0.5670   -0.8280   -2.5670 hc        1 MOL      0.071440
    108 H49        -1.0550    0.2070   -3.7750 hc        1 MOL      0.071440
    109 N10        -5.1980   -1.2630   -2.1910 n         1 MOL     -0.239868
    110 C35        -6.6140   -0.8130   -2.1460 c3        1 MOL     -0.145207
    111 C36        -6.8370    0.6190   -1.5160 c         1 MOL      0.582798
    112 O17        -7.8090    1.2300   -1.9050 o         1 MOL     -0.559087
    113 C37        -7.3730   -1.9160   -1.3940 c3        1 MOL     -0.108134
    114 C38        -7.4110   -3.2370   -2.0310 c         1 MOL      0.569510
    115 N11        -7.7440   -3.3770   -3.3410 n         1 MOL     -0.698286
    116 O18        -7.0380   -4.1620   -1.3100 o         1 MOL     -0.553155
    117 H50        -4.7250   -1.4900   -1.3260 hn        1 MOL      0.204893
    118 H51        -6.9810   -0.7200   -3.1620 h1        1 MOL      0.136741
    119 H52        -8.4180   -1.6480   -1.2600 hc        1 MOL      0.056363
    120 H53        -7.0280   -2.0320   -0.3670 hc        1 MOL      0.056363
    121 H54        -8.1250   -2.5910   -3.8420 hn        1 MOL      0.353979
    122 H55        -7.8410   -4.3160   -3.7010 hn        1 MOL      0.353979
    123 N12        -5.9040    1.1360   -0.7250 n         1 MOL     -0.338402
    124 C39        -5.9400    2.2090    0.2540 c3        1 MOL      0.019389
    125 C40        -4.5900    2.8880    0.4930 c         1 MOL      0.448431
    126 O19        -3.5410    2.2380    0.3380 o         1 MOL     -0.453413
    127 C41        -6.3080    1.6120    1.5920 c3        1 MOL     -0.121928
    128 C42        -7.5990    0.8700    1.6630 ca        1 MOL      0.079705
    129 C43        -8.7630    1.6180    1.5440 ca        1 MOL     -0.149790
    130 C44        -7.6190   -0.5280    1.8950 ca        1 MOL     -0.149790
    131 C45        -9.9830    0.9800    1.8400 ca        1 MOL     -0.257082
    132 C46        -8.8410   -1.1450    2.2450 ca        1 MOL     -0.257082
    133 C47       -10.0370   -0.3800    2.1860 ca        1 MOL      0.333942
    134 O20       -11.2130   -0.9440    2.4830 oh        1 MOL     -0.500368
    135 H56        -5.0100    0.6530   -0.7240 hn        1 MOL      0.158936
    136 H57        -6.6010    2.9930   -0.1220 h1        1 MOL      0.077110
    137 H58        -6.3230    2.3660    2.3920 hc        1 MOL      0.098746
    138 H59        -5.5420    0.9450    1.9940 hc        1 MOL      0.098746
    139 H60        -8.7080    2.6350    1.1930 ha        1 MOL      0.125411
    140 H61        -6.7590   -1.1690    1.8400 ha        1 MOL      0.125411
    141 H62       -10.8740    1.5830    1.8540 ha        1 MOL      0.132507
    142 H63        -8.8180   -2.2140    2.4200 ha        1 MOL      0.132507
    143 H64       -11.8860   -0.2840    2.6690 ho        1 MOL      0.365658
    144 N13        -4.6070    4.2000    0.8520 n         1 MOL     -0.552363
    145 C48        -3.4520    5.1120    1.1690 c3        1 MOL      0.007011
    146 C49        -2.2920    5.3030    0.1480 c         1 MOL      0.183706
    147 O21        -1.4860    6.2020    0.2950 o         1 MOL     -0.471621
    148 C50        -2.8320    4.5060    2.5000 c3        1 MOL      0.384238
    149 C51        -3.8760    4.3490    3.5950 c3        1 MOL     -0.457555
    150 C52        -3.2000    4.5090    4.9740 c         1 MOL      0.790017
    151 O22        -3.9360    4.8940    5.9060 o         1 MOL     -0.741371
    152 O23        -1.9790    4.2380    5.1550 o         1 MOL     -0.741371
    153 H65        -5.4690    4.6860    0.6920 hn        1 MOL      0.308242
    154 H66        -3.8430    6.0870    1.4740 h1        1 MOL      0.100388
    155 H67        -2.1610    5.3120    2.8140 hc        1 MOL     -0.023188
    156 H68        -2.2070    3.6200    2.3460 hc        1 MOL     -0.023188
    157 H69        -4.3340    3.3580    3.5850 hc        1 MOL      0.054891
    158 H70        -4.5340    5.2050    3.4030 hc        1 MOL      0.054891
    159 N14        -2.1620    4.4760   -0.8580 n         1 MOL     -0.008740
    160 C53        -1.0160    4.4970   -1.7340 c3        1 MOL     -0.048516
    161 C54        -1.3520    5.1590   -3.0710 c         1 MOL      0.438787
    162 O24        -0.4460    5.5360   -3.8640 o         1 MOL     -0.531307
    163 C55        -0.4350    3.0540   -1.9620 c3        1 MOL     -0.023088
    164 C56        -0.0100    2.3350   -0.6490 c3        1 MOL      0.160184
    165 C57         1.4450    2.6400   -0.3160 c         1 MOL      0.673327
    166 O25         1.7620    3.7920    0.0100 o         1 MOL     -0.647277
    167 O26         2.2630    1.6850   -0.1770 o         1 MOL     -0.647277
    168 H71        -2.7550    3.6610   -0.8700 hn        1 MOL      0.149606
    169 H72        -0.1740    5.0550   -1.3200 h1        1 MOL      0.120815
    170 H73         0.4370    3.1100   -2.6160 hc        1 MOL     -0.009054
    171 H74        -1.1800    2.4310   -2.4540 hc        1 MOL     -0.009054
    172 H75        -0.1970    1.2670   -0.7940 hc        1 MOL     -0.071159
    173 H76        -0.5930    2.6330    0.2210 hc        1 MOL     -0.071159
    174 N15        -2.6500    5.3690   -3.3780 n         1 MOL     -0.295487
    175 C58        -3.0730    6.2660   -4.4830 c3        1 MOL     -0.097687
    176 H77        -3.5880    5.6830   -5.2470 h1        1 MOL      0.067278
    177 H78        -3.7460    7.0290   -4.0950 h1        1 MOL      0.067278
    178 H79        -2.1960    6.7420   -4.9210 h1        1 MOL      0.067278
    179 H80        -3.3380    5.0860   -2.6970 hn        1 MOL      0.190326
    180 Ca1         4.5150    2.0390    0.9020 Ca        1 MOL      1.810676
    181 O27         4.0700    4.7650    1.0460 oh        1 MOL     -0.905545
    182 H81         4.4730    5.3770    0.4320 ho        1 MOL      0.430626
    183 H82         3.1570    4.7210    0.7750 ho        1 MOL      0.430626
    184 O28         6.0410    1.0300    2.9200 oh        1 MOL     -0.905545
    185 H83         5.7790    0.9000    3.8360 ho        1 MOL      0.430626
    186 H84         6.6240    0.2990    2.7320 ho        1 MOL      0.430626
    187 O29         2.7800    2.0030    3.1120 oh        1 MOL     -0.905545
    188 H85         1.9000    2.3400    3.3050 ho        1 MOL      0.430626
    189 H86         3.0070    1.4900    3.8940 ho        1 MOL      0.430626
@<TRIPOS>BOND
     1    1    2 1   
     2    1    4 1   
     3    1    5 1   
     4    1    6 1   
     5    2    3 2   
     6    2    7 1   
     7    7    8 1   
     8    7   15 1   
     9    8    9 1   
    10    8   11 1   
    11    8   16 1   
    12    9   10 2   
    13    9   19 1   
    14   11   12 1   
    15   11   17 1   
    16   11   18 1   
    17   12   13 1   
    18   12   14 1   
    19   19   20 1   
    20   19   27 1   
    21   20   21 1   
    22   20   23 1   
    23   20   28 1   
    24   21   22 2   
    25   21   38 1   
    26   23   24 1   
    27   23   25 1   
    28   23   29 1   
    29   24   26 1   
    30   24   30 1   
    31   24   31 1   
    32   25   32 1   
    33   25   33 1   
    34   25   34 1   
    35   26   35 1   
    36   26   36 1   
    37   26   37 1   
    38   38   39 1   
    39   38   46 1   
    40   39   40 1   
    41   39   42 1   
    42   39   47 1   
    43   40   41 2   
    44   40   50 1   
    45   42   43 1   
    46   42   48 1   
    47   42   49 1   
    48   43   44 1   
    49   43   45 1   
    50   50   51 1   
    51   50   54 1   
    52   51   52 1   
    53   51   55 1   
    54   51   56 1   
    55   52   53 2   
    56   52   57 1   
    57   57   58 1   
    58   57   65 1   
    59   58   59 1   
    60   58   61 1   
    61   58   66 1   
    62   59   60 2   
    63   59   69 1   
    64   61   62 1   
    65   61   67 1   
    66   61   68 1   
    67   62   63 1   
    68   62   64 1   
    69   69   70 1   
    70   69   73 1   
    71   70   71 1   
    72   70   74 1   
    73   70   75 1   
    74   71   72 2   
    75   71   76 1   
    76   76   77 1   
    77   76   85 1   
    78   77   78 1   
    79   77   80 1   
    80   77   86 1   
    81   78   79 2   
    82   78   93 1   
    83   80   81 1   
    84   80   87 1   
    85   80   88 1   
    86   81   82 1   
    87   81   89 1   
    88   81   90 1   
    89   82   83 1   
    90   82   84 2   
    91   83   91 1   
    92   83   92 1   
    93   93   94 1   
    94   93  100 1   
    95   94   95 1   
    96   94   97 1   
    97   94  101 1   
    98   95   96 2   
    99   95  109 1   
   100   97   98 1   
   101   97   99 1   
   102   97  102 1   
   103   98  103 1   
   104   98  104 1   
   105   98  105 1   
   106   99  106 1   
   107   99  107 1   
   108   99  108 1   
   109  109  110 1   
   110  109  117 1   
   111  110  111 1   
   112  110  113 1   
   113  110  118 1   
   114  111  112 2   
   115  111  123 1   
   116  113  114 1   
   117  113  119 1   
   118  113  120 1   
   119  114  115 1   
   120  114  116 2   
   121  115  121 1   
   122  115  122 1   
   123  123  124 1   
   124  123  135 1   
   125  124  125 1   
   126  124  127 1   
   127  124  136 1   
   128  125  126 2   
   129  125  144 1   
   130  127  128 1   
   131  127  137 1   
   132  127  138 1   
   133  128  129 ar  
   134  128  130 ar  
   135  129  131 ar  
   136  129  139 1   
   137  130  132 ar  
   138  130  140 1   
   139  131  133 ar  
   140  131  141 1   
   141  132  133 ar  
   142  132  142 1   
   143  133  134 1   
   144  134  143 1   
   145  144  145 1   
   146  144  153 1   
   147  145  146 1   
   148  145  148 1   
   149  145  154 1   
   150  146  147 2   
   151  146  159 1   
   152  148  149 1   
   153  148  155 1   
   154  148  156 1   
   155  149  150 1   
   156  149  157 1   
   157  149  158 1   
   158  150  151 1   
   159  150  152 1   
   160  159  160 1   
   161  159  168 1   
   162  160  161 1   
   163  160  163 1   
   164  160  169 1   
   165  161  162 2   
   166  161  174 1   
   167  163  164 1   
   168  163  170 1   
   169  163  171 1   
   170  164  165 1   
   171  164  172 1   
   172  164  173 1   
   173  165  166 1   
   174  165  167 1   
   175  174  175 1   
   176  174  179 1   
   177  175  176 1   
   178  175  177 1   
   179  175  178 1   
   180  181  182 1   
   181  181  183 1   
   182  184  185 1   
   183  184  186 1   
   184  187  188 1   
   185  187  189 1   
@<TRIPOS>SUBSTRUCTURE
     1 MOL         1 TEMP              0 ****  ****    0 ROOT
