@<TRIPOS>MOLECULE
MOL
  184   179     1     0     0
SMALL
resp


@<TRIPOS>ATOM
      1 C1          1.5170   -3.0590    3.4950 c3        1 MOL     -0.257267
      2 C2          2.7330   -2.1830    3.0880 c         1 MOL      0.558675
      3 O1          2.7570   -1.5230    2.0280 o         1 MOL     -0.558609
      4 H1          1.8280   -4.1010    3.5630 hc        1 MOL      0.080206
      5 H2          1.1390   -2.7290    4.4620 hc        1 MOL      0.080206
      6 H3          0.7330   -2.9630    2.7450 hc        1 MOL      0.080206
      7 N1          3.8150   -2.1820    3.9070 n         1 MOL     -0.363566
      8 C3          5.0620   -1.4020    3.7170 c3        1 MOL      0.021263
      9 C4          5.9640   -1.9060    2.6060 c         1 MOL      0.355348
     10 O2          6.5870   -1.1260    1.8850 o         1 MOL     -0.534559
     11 C5          5.9770   -1.2360    4.9280 c3        1 MOL     -0.046318
     12 C6          6.2900   -2.5200    5.6880 c         1 MOL      0.732200
     13 O3          5.6150   -2.7420    6.6780 o         1 MOL     -0.727170
     14 O4          7.3020   -3.1670    5.4350 o         1 MOL     -0.727170
     15 H4          3.7420   -2.6890    4.7730 hn        1 MOL      0.205707
     16 H5          4.7440   -0.4180    3.3780 h1        1 MOL      0.067492
     17 H6          5.3930   -0.6340    5.6230 hc        1 MOL     -0.002587
     18 H7          6.7800   -0.5380    4.6890 hc        1 MOL     -0.002587
     19 N2          5.9610   -3.1860    2.4170 n         1 MOL     -0.287365
     20 C7          6.6930   -3.8720    1.2880 c3        1 MOL      0.151023
     21 C8          6.5400   -3.2030   -0.0900 c         1 MOL      0.408438
     22 O5          7.4340   -3.1430   -0.8740 o         1 MOL     -0.496525
     23 C9          8.2050   -4.0730    1.7510 c3        1 MOL     -0.382413
     24 H8          5.3530   -3.6780    3.0570 hn        1 MOL      0.222617
     25 H9          6.1980   -4.8490    1.2600 h1        1 MOL      0.061157
     26 H10         8.8750   -4.3990    0.9580 hc        1 MOL      0.106454
     27 H11         8.5330   -3.1060    2.1240 hc        1 MOL      0.106454
     28 H12         8.3970   -4.6350    2.6710 hc        1 MOL      0.106454
     29 N3          5.3770   -2.7500   -0.3630 n         1 MOL     -0.161485
     30 C10         5.0300   -2.1410   -1.6830 c3        1 MOL      0.043521
     31 C11         5.9260   -1.0870   -2.2580 c         1 MOL      0.405128
     32 O6          6.4150   -1.1300   -3.3830 o         1 MOL     -0.510775
     33 C12         4.7390   -3.2400   -2.7600 c3        1 MOL     -0.101577
     34 C13         4.0210   -4.4810   -2.2420 c         1 MOL      0.693392
     35 O7          4.5850   -5.3620   -1.5000 o         1 MOL     -0.722828
     36 O8          2.8250   -4.5720   -2.5170 o         1 MOL     -0.722828
     37 H13         4.6820   -2.8080    0.3690 hn        1 MOL      0.158463
     38 H14         4.0650   -1.6450   -1.5520 h1        1 MOL      0.018080
     39 H15         5.6620   -3.6230   -3.1770 hc        1 MOL      0.021703
     40 H16         4.2200   -2.8070   -3.6070 hc        1 MOL      0.021703
     41 N4          6.2100   -0.0410   -1.5180 n         1 MOL     -0.241605
     42 C14         7.3710    0.8240   -1.8270 c3        1 MOL     -0.014206
     43 C15         7.0400    2.2370   -2.3880 c         1 MOL      0.434767
     44 O9          7.8070    2.7700   -3.2270 o         1 MOL     -0.545629
     45 H17         5.8040   -0.0120   -0.6010 hn        1 MOL      0.232438
     46 H18         8.0010    0.3660   -2.6020 h1        1 MOL      0.086401
     47 H19         7.9520    0.9210   -0.9210 h1        1 MOL      0.086401
     48 N5          5.7850    2.6930   -2.1690 n         1 MOL     -0.358560
     49 C16         5.0370    3.7910   -2.8470 c3        1 MOL      0.037043
     50 C17         4.2180    4.4920   -1.7680 c         1 MOL      0.450340
     51 O10         3.3720    3.7430   -1.1590 o         1 MOL     -0.449152
     52 C18         4.1940    3.2690   -4.0140 c3        1 MOL     -0.236551
     53 C19         4.0220    4.1950   -5.2210 c         1 MOL      0.687016
     54 N6          4.9390    4.2780   -6.1260 n         1 MOL     -0.823473
     55 O11         3.0260    4.8540   -5.4820 o         1 MOL     -0.589024
     56 H20         5.2970    2.1830   -1.4530 hn        1 MOL      0.213885
     57 H21         5.7380    4.5360   -3.2150 h1        1 MOL      0.058187
     58 H22         3.2210    2.8140   -3.8110 hc        1 MOL      0.123122
     59 H23         4.7530    2.4280   -4.4170 hc        1 MOL      0.123122
     60 H24         5.8140    3.7890   -6.1720 hn        1 MOL      0.367813
     61 H25         4.6380    4.8510   -6.9100 hn        1 MOL      0.367813
     62 N7          4.4680    5.7420   -1.4420 n         1 MOL     -0.344946
     63 C20         3.8060    6.5550   -0.3530 c3        1 MOL     -0.235209
     64 C21         2.2990    6.6220   -0.2390 c         1 MOL      0.732578
     65 O12         1.4990    6.3170   -1.1140 o         1 MOL     -0.506190
     66 H26         5.1850    6.2710   -1.9220 hn        1 MOL      0.292978
     67 H27         4.0760    7.5850   -0.5820 h1        1 MOL      0.111688
     68 H28         4.1150    6.2160    0.6310 h1        1 MOL      0.111688
     69 N8          1.8770    7.0600    0.9590 n         1 MOL     -0.491946
     70 C22         0.4790    7.5620    1.2040 c3        1 MOL     -0.433738
     71 C23        -0.6910    6.6120    1.4560 c         1 MOL      0.649538
     72 O13        -1.7850    7.0790    1.7470 o         1 MOL     -0.585642
     73 C24         0.5160    8.7320    2.2370 c3        1 MOL      0.612428
     74 C25         0.9530    8.2660    3.6380 c3        1 MOL     -0.387808
     75 O14         1.3500    9.8150    1.9090 oh        1 MOL     -0.643214
     76 H29         2.6050    7.5590    1.4550 hn        1 MOL      0.232750
     77 H30         0.1850    8.0240    0.2570 h1        1 MOL      0.171710
     78 H31        -0.4440    9.2390    2.2810 h1        1 MOL      0.009991
     79 H32         2.2350    9.4460    1.8860 ho        1 MOL      0.367768
     80 H33         0.1170    7.7560    4.1240 hc        1 MOL      0.089824
     81 H34         1.8170    7.6280    3.4790 hc        1 MOL      0.089824
     82 H35         1.2660    9.1560    4.1880 hc        1 MOL      0.089824
     83 N9         -0.4940    5.3010    1.3560 n         1 MOL     -0.274650
     84 C26        -1.5790    4.2970    1.4220 c3        1 MOL      0.000485
     85 C27        -1.5440    3.1590    0.3420 c         1 MOL      0.425428
     86 O15        -0.8400    3.2810   -0.6430 o         1 MOL     -0.449395
     87 C28        -1.6280    3.7460    2.9030 c3        1 MOL      0.038058
     88 C29        -0.4160    2.9160    3.5050 c3        1 MOL     -0.112053
     89 C30        -1.9810    4.7520    3.9780 c3        1 MOL     -0.331221
     90 C31         0.0480    1.7500    2.7110 c3        1 MOL     -0.116274
     91 H36         0.4100    4.9420    1.0770 hn        1 MOL      0.262166
     92 H37        -2.5450    4.7880    1.3410 h1        1 MOL      0.085680
     93 H38        -2.4960    3.0960    3.0330 hc        1 MOL      0.051763
     94 H39        -0.8390    2.5520    4.4430 hc        1 MOL      0.034842
     95 H40         0.3720    3.6120    3.7820 hc        1 MOL      0.034842
     96 H41        -2.8900    5.2720    3.6670 hc        1 MOL      0.083431
     97 H42        -2.3330    4.2640    4.8860 hc        1 MOL      0.083431
     98 H43        -1.2410    5.5490    4.0560 hc        1 MOL      0.083431
     99 H44        -0.7150    1.0130    2.4550 hc        1 MOL      0.062994
    100 H45         0.5700    2.1340    1.8400 hc        1 MOL      0.062994
    101 H46         0.7940    1.2050    3.2940 hc        1 MOL      0.062994
    102 N10        -2.3850    2.1380    0.4540 n         1 MOL     -0.479925
    103 C32        -2.3800    1.0160   -0.5180 c3        1 MOL      0.195491
    104 C33        -3.7750    0.5540   -0.9600 c         1 MOL      0.453576
    105 O16        -3.9990   -0.6150   -1.2210 o         1 MOL     -0.456012
    106 C34        -1.6010   -0.1940   -0.0620 c3        1 MOL      0.027083
    107 C35        -1.0990   -1.0780   -1.2080 c         1 MOL      0.744593
    108 O17        -0.7000   -2.2120   -0.9150 o         1 MOL     -0.745102
    109 O18        -0.9390   -0.6350   -2.4030 o         1 MOL     -0.745102
    110 H47        -3.0150    2.1270    1.2460 hn        1 MOL      0.243864
    111 H48        -1.9060    1.3390   -1.4450 h1        1 MOL      0.046967
    112 H49        -2.1490   -0.7540    0.6890 hc        1 MOL     -0.040765
    113 H50        -0.7040    0.1230    0.4800 hc        1 MOL     -0.040765
    114 N11        -4.7840    1.4190   -0.7720 n         1 MOL     -0.485057
    115 C36        -6.1620    1.1640   -1.0530 c3        1 MOL      0.204546
    116 C37        -6.7630    0.0030   -0.1810 c         1 MOL      0.300749
    117 O19        -6.5540    0.1360    1.0530 o         1 MOL     -0.522226
    118 C38        -7.0310    2.4480   -0.8990 c3        1 MOL     -0.256061
    119 C39        -8.5140    2.1970   -1.1380 ca        1 MOL      0.127536
    120 C40        -9.0400    2.2720   -2.4240 ca        1 MOL     -0.193563
    121 C41        -9.3120    1.9240   -0.0170 ca        1 MOL     -0.193563
    122 C42       -10.4480    2.0750   -2.5720 ca        1 MOL     -0.095377
    123 C43       -10.7420    1.6680   -0.1720 ca        1 MOL     -0.095377
    124 C44       -11.2660    1.8230   -1.4420 ca        1 MOL     -0.131832
    125 H51        -4.5930    2.2740   -0.2710 hn        1 MOL      0.256910
    126 H52        -6.1300    0.8840   -2.1000 h1        1 MOL      0.045211
    127 H53        -6.6310    3.3060   -1.4370 hc        1 MOL      0.101009
    128 H54        -6.9210    2.7850    0.1330 hc        1 MOL      0.101009
    129 H55        -8.4090    2.4210   -3.2970 ha        1 MOL      0.138739
    130 H56        -8.8890    1.8750    0.9700 ha        1 MOL      0.138739
    131 H57       -10.8780    2.1970   -3.5500 ha        1 MOL      0.110147
    132 H58       -11.3490    1.4850    0.7010 ha        1 MOL      0.110147
    133 H59       -12.3380    1.7270   -1.5640 ha        1 MOL      0.102208
    134 N12        -7.4010   -1.0590   -0.7990 n         1 MOL      0.033958
    135 C45        -8.1880   -1.9970    0.0090 c3        1 MOL     -0.135863
    136 C46        -7.3630   -2.9930    0.9110 c         1 MOL      0.309616
    137 O20        -7.9740   -3.7370    1.6500 o         1 MOL     -0.504830
    138 C47        -9.0550   -2.8450   -1.0010 c3        1 MOL      0.084233
    139 C48        -9.1140   -1.9430   -2.2530 c3        1 MOL     -0.027417
    140 C49        -7.7700   -1.1610   -2.2190 c3        1 MOL      0.037453
    141 H60        -8.9530   -1.4390    0.5530 h1        1 MOL      0.119993
    142 H61        -8.6760   -3.8470   -1.2210 hc        1 MOL      0.012227
    143 H62       -10.0270   -3.0180   -0.5510 hc        1 MOL      0.012227
    144 H63        -9.3720   -2.5140   -3.1470 hc        1 MOL      0.002015
    145 H64        -9.9170   -1.2270   -2.0600 hc        1 MOL      0.002015
    146 H65        -6.9420   -1.7160   -2.6720 h1        1 MOL      0.012149
    147 H66        -7.7920   -0.1680   -2.6760 h1        1 MOL      0.012149
    148 N13        -6.0600   -2.9530    0.7900 n         1 MOL     -0.128712
    149 C50        -5.1800   -3.6490    1.7630 c3        1 MOL     -0.061450
    150 C51        -5.0090   -2.8320    2.9870 c         1 MOL      0.517862
    151 O21        -4.9860   -3.4310    4.1030 o         1 MOL     -0.558984
    152 C52        -3.8300   -3.8780    1.1540 c3        1 MOL      0.126356
    153 C53        -3.7690   -4.7560   -0.1040 c3        1 MOL     -0.137849
    154 C54        -2.3680   -4.8960   -0.6220 c         1 MOL      0.736352
    155 O22        -1.3770   -5.1340    0.1400 o         1 MOL     -0.737963
    156 O23        -2.2320   -4.7920   -1.8260 o         1 MOL     -0.737963
    157 H67        -5.6110   -2.3840    0.0970 hn        1 MOL      0.149045
    158 H68        -5.6920   -4.5920    1.9590 h1        1 MOL      0.094604
    159 H69        -3.0770   -4.3040    1.8160 hc        1 MOL     -0.029087
    160 H70        -3.4980   -2.9010    0.7980 hc        1 MOL     -0.029087
    161 H71        -4.3770   -4.2980   -0.8820 hc        1 MOL      0.009847
    162 H72        -4.2980   -5.6670    0.1530 hc        1 MOL      0.009847
    163 N14        -4.8880   -1.4620    2.9160 n         1 MOL     -0.307860
    164 C55        -4.8590   -0.7710    4.2490 c3        1 MOL     -0.258853
    165 H73        -5.3100    0.2180    4.1550 h1        1 MOL      0.111549
    166 H74        -5.4210   -1.3580    4.9760 h1        1 MOL      0.111549
    167 H75        -3.8270   -0.6670    4.5840 h1        1 MOL      0.111549
    168 H76        -4.8570   -1.0110    2.0100 hn        1 MOL      0.309761
    169 Ca1         0.3990   -4.5310   -1.6200 Ca        1 MOL      1.782238
    170 O24         0.3440   -2.7960   -3.5930 oh        1 MOL     -0.828276
    171 H77         0.9280   -2.5210   -4.3060 ho        1 MOL      0.398765
    172 H78        -0.2070   -2.0390   -3.4240 ho        1 MOL      0.398765
    173 O25         1.9650   -2.7290   -0.3130 oh        1 MOL     -0.828276
    174 H79         1.9250   -2.3020    0.5460 ho        1 MOL      0.398765
    175 H80         2.0460   -2.0130   -0.9410 ho        1 MOL      0.398765
    176 O26         0.5520   -5.7500   -4.4540 oh        1 MOL     -0.828276
    177 H81         0.2440   -6.6550   -4.5160 ho        1 MOL      0.398765
    178 H82         0.8010   -5.5260   -5.3510 ho        1 MOL      0.398765
    179 O27        -0.3070   -7.2970   -2.0900 oh        1 MOL     -0.828276
    180 H83        -0.2240   -7.9910   -1.4440 ho        1 MOL      0.398765
    181 H84        -0.4870   -7.7500   -2.9160 ho        1 MOL      0.398765
    182 O28         1.7950   -6.1670    0.0960 oh        1 MOL     -0.828276
    183 H85         1.5190   -6.4460    0.9730 ho        1 MOL      0.398765
    184 H86         2.7550   -6.1960    0.1200 ho        1 MOL      0.398765
@<TRIPOS>BOND
     1    1    2 1   
     2    1    4 1   
     3    1    5 1   
     4    1    6 1   
     5    2    3 2   
     6    2    7 1   
     7    7    8 1   
     8    7   15 1   
     9    8    9 1   
    10    8   11 1   
    11    8   16 1   
    12    9   10 2   
    13    9   19 1   
    14   11   12 1   
    15   11   17 1   
    16   11   18 1   
    17   12   13 1   
    18   12   14 1   
    19   19   20 1   
    20   19   24 1   
    21   20   21 1   
    22   20   23 1   
    23   20   25 1   
    24   21   22 2   
    25   21   29 1   
    26   23   26 1   
    27   23   27 1   
    28   23   28 1   
    29   29   30 1   
    30   29   37 1   
    31   30   31 1   
    32   30   33 1   
    33   30   38 1   
    34   31   32 2   
    35   31   41 1   
    36   33   34 1   
    37   33   39 1   
    38   33   40 1   
    39   34   35 1   
    40   34   36 1   
    41   41   42 1   
    42   41   45 1   
    43   42   43 1   
    44   42   46 1   
    45   42   47 1   
    46   43   44 2   
    47   43   48 1   
    48   48   49 1   
    49   48   56 1   
    50   49   50 1   
    51   49   52 1   
    52   49   57 1   
    53   50   51 2   
    54   50   62 1   
    55   52   53 1   
    56   52   58 1   
    57   52   59 1   
    58   53   54 1   
    59   53   55 2   
    60   54   60 1   
    61   54   61 1   
    62   62   63 1   
    63   62   66 1   
    64   63   64 1   
    65   63   67 1   
    66   63   68 1   
    67   64   65 2   
    68   64   69 1   
    69   69   70 1   
    70   69   76 1   
    71   70   71 1   
    72   70   73 1   
    73   70   77 1   
    74   71   72 2   
    75   71   83 1   
    76   73   74 1   
    77   73   75 1   
    78   73   78 1   
    79   74   80 1   
    80   74   81 1   
    81   74   82 1   
    82   75   79 1   
    83   83   84 1   
    84   83   91 1   
    85   84   85 1   
    86   84   87 1   
    87   84   92 1   
    88   85   86 2   
    89   85  102 1   
    90   87   88 1   
    91   87   89 1   
    92   87   93 1   
    93   88   90 1   
    94   88   94 1   
    95   88   95 1   
    96   89   96 1   
    97   89   97 1   
    98   89   98 1   
    99   90   99 1   
   100   90  100 1   
   101   90  101 1   
   102  102  103 1   
   103  102  110 1   
   104  103  104 1   
   105  103  106 1   
   106  103  111 1   
   107  104  105 2   
   108  104  114 1   
   109  106  107 1   
   110  106  112 1   
   111  106  113 1   
   112  107  108 1   
   113  107  109 1   
   114  114  115 1   
   115  114  125 1   
   116  115  116 1   
   117  115  118 1   
   118  115  126 1   
   119  116  117 2   
   120  116  134 1   
   121  118  119 1   
   122  118  127 1   
   123  118  128 1   
   124  119  120 ar  
   125  119  121 ar  
   126  120  122 ar  
   127  120  129 1   
   128  121  123 ar  
   129  121  130 1   
   130  122  124 ar  
   131  122  131 1   
   132  123  124 ar  
   133  123  132 1   
   134  124  133 1   
   135  134  135 1   
   136  134  140 1   
   137  135  136 1   
   138  135  138 1   
   139  135  141 1   
   140  136  137 2   
   141  136  148 1   
   142  138  139 1   
   143  138  142 1   
   144  138  143 1   
   145  139  140 1   
   146  139  144 1   
   147  139  145 1   
   148  140  146 1   
   149  140  147 1   
   150  148  149 1   
   151  148  157 1   
   152  149  150 1   
   153  149  152 1   
   154  149  158 1   
   155  150  151 2   
   156  150  163 1   
   157  152  153 1   
   158  152  159 1   
   159  152  160 1   
   160  153  154 1   
   161  153  161 1   
   162  153  162 1   
   163  154  155 1   
   164  154  156 1   
   165  163  164 1   
   166  163  168 1   
   167  164  165 1   
   168  164  166 1   
   169  164  167 1   
   170  170  171 1   
   171  170  172 1   
   172  173  174 1   
   173  173  175 1   
   174  176  177 1   
   175  176  178 1   
   176  179  180 1   
   177  179  181 1   
   178  182  183 1   
   179  182  184 1   
@<TRIPOS>SUBSTRUCTURE
     1 MOL         1 TEMP              0 ****  ****    0 ROOT
