@<TRIPOS>MOLECULE
MOL
  191   184     1     0     0
SMALL
resp


@<TRIPOS>ATOM
      1 C1          1.5380    1.4880    2.7480 c3        1 MOL     -0.260701
      2 C2          2.8210    1.4740    1.8290 c         1 MOL      0.610500
      3 O1          2.7770    2.0130    0.7110 o         1 MOL     -0.602624
      4 H1          1.7990    1.1180    3.7400 hc        1 MOL      0.065194
      5 H2          1.1590    2.5070    2.8280 hc        1 MOL      0.065194
      6 H3          0.7710    0.8480    2.3130 hc        1 MOL      0.065194
      7 N1          3.8740    0.8020    2.2110 n         1 MOL     -0.385537
      8 C3          5.1350    0.5910    1.4300 c3        1 MOL      0.020592
      9 C4          5.5560   -0.8530    1.2060 c         1 MOL      0.503733
     10 O2          6.6580   -1.1120    0.5970 o         1 MOL     -0.414235
     11 C5          6.3010    1.4140    2.0820 c3        1 MOL     -0.275967
     12 C6          6.8620    1.0550    3.5020 c         1 MOL      0.659192
     13 O3          8.0360    1.4340    3.8110 o         1 MOL     -0.670675
     14 O4          6.2250    0.3330    4.3070 o         1 MOL     -0.670675
     15 H4          3.8260    0.4050    3.1380 hn        1 MOL      0.218541
     16 H5          4.9490    1.0040    0.4340 h1        1 MOL      0.101378
     17 H6          5.9540    2.4410    2.0070 hc        1 MOL      0.089066
     18 H7          7.1610    1.4010    1.4100 hc        1 MOL      0.089066
     19 N2          4.7750   -1.8120    1.7500 n         1 MOL     -0.365711
     20 C7          4.9980   -3.2850    1.5750 c3        1 MOL      0.205799
     21 C8          5.3430   -3.8280    0.1400 c         1 MOL      0.335965
     22 O5          6.3120   -4.5680   -0.0410 o         1 MOL     -0.516795
     23 C9          6.0860   -3.7010    2.5960 c3        1 MOL     -0.357114
     24 C10         5.8910   -3.2620    4.0700 c3        1 MOL      0.374610
     25 C11         7.1700   -3.6020    4.9270 c3        1 MOL     -0.039017
     26 C12         6.8280   -3.2550    6.4230 c3        1 MOL      0.192677
     27 N3          8.1140   -3.0210    7.1110 n4        1 MOL     -0.487339
     28 H8          3.8580   -1.5030    2.0450 hn        1 MOL      0.226335
     29 H9          4.0880   -3.7310    1.9580 h1        1 MOL     -0.039010
     30 H10         7.0170   -3.2180    2.3060 hc        1 MOL      0.098376
     31 H11         6.2770   -4.7810    2.6090 hc        1 MOL      0.098376
     32 H12         5.0480   -3.7210    4.5940 hc        1 MOL     -0.081258
     33 H13         5.7810   -2.1790    4.1590 hc        1 MOL     -0.081258
     34 H14         8.0660   -3.0530    4.6400 hc        1 MOL      0.008829
     35 H15         7.2720   -4.6800    4.8420 hc        1 MOL      0.008829
     36 H16         6.2790   -4.0820    6.8850 hx        1 MOL      0.020846
     37 H17         6.2070   -2.3630    6.4050 hx        1 MOL      0.020846
     38 H18         7.9560   -2.8280    8.0920 hn        1 MOL      0.358756
     39 H19         8.7030   -3.8470    7.0430 hn        1 MOL      0.358756
     40 H20         8.5030   -2.1850    6.7020 hn        1 MOL      0.358756
     41 N4          4.7790   -3.2920   -0.9340 n         1 MOL     -0.104767
     42 C13         5.2320   -3.3690   -2.2940 c3        1 MOL      0.073832
     43 C14         5.3400   -1.9730   -2.9110 c         1 MOL      0.516152
     44 O6          4.8810   -1.7040   -4.0110 o         1 MOL     -0.580643
     45 C15         4.2870   -4.3160   -3.0160 c3        1 MOL     -0.319371
     46 C16         2.8180   -4.3520   -2.6550 c         1 MOL      0.750959
     47 O7          2.1420   -5.3690   -2.6230 o         1 MOL     -0.735884
     48 O8          2.2510   -3.2850   -2.2920 o         1 MOL     -0.735884
     49 H21         4.0500   -2.6420   -0.6800 hn        1 MOL      0.114386
     50 H22         6.2360   -3.7640   -2.4450 h1        1 MOL      0.096204
     51 H23         4.6200   -5.3290   -2.8150 hc        1 MOL      0.086049
     52 H24         4.4380   -4.1910   -4.0880 hc        1 MOL      0.086049
     53 N5          5.7960   -1.0720   -2.1310 n         1 MOL     -0.347036
     54 C17         5.7100    0.3890   -2.5090 c3        1 MOL      0.010589
     55 C18         6.9640    1.2460   -2.1920 c         1 MOL      0.416620
     56 O9          8.0790    0.7700   -1.8730 o         1 MOL     -0.505325
     57 H25         6.0420   -1.3590   -1.1910 hn        1 MOL      0.145539
     58 H26         4.7820    0.7590   -2.0870 h1        1 MOL      0.121739
     59 H27         5.6650    0.4260   -3.6050 h1        1 MOL      0.121739
     60 N6          6.8920    2.5940   -2.0970 n         1 MOL     -0.452943
     61 C19         5.7700    3.5060   -2.2340 c3        1 MOL      0.458388
     62 C20         5.7240    4.6300   -1.1780 c         1 MOL      0.386051
     63 O10         6.8320    5.0550   -0.7780 o         1 MOL     -0.530590
     64 C21         5.6540    4.0450   -3.6810 c3        1 MOL     -0.400646
     65 C22         5.3090    2.9090   -4.7060 c         1 MOL      0.638495
     66 N7          6.2280    2.5450   -5.6350 n         1 MOL     -0.763223
     67 O11         4.2180    2.3370   -4.6600 o         1 MOL     -0.534440
     68 H28         7.7820    2.9680   -1.8060 hn        1 MOL      0.291347
     69 H29         4.8440    2.9570   -2.0990 h1        1 MOL     -0.104335
     70 H30         6.6430    4.4680   -3.8420 hc        1 MOL      0.088437
     71 H31         4.8750    4.8030   -3.6720 hc        1 MOL      0.088437
     72 H32         6.9800    3.1640   -5.8850 hn        1 MOL      0.361952
     73 H33         5.8970    1.9390   -6.3750 hn        1 MOL      0.361952
     74 N8          4.5480    4.9860   -0.7450 n         1 MOL     -0.358570
     75 C23         3.1860    4.5070   -1.2430 c3        1 MOL     -0.128465
     76 C24         2.0740    5.2180   -0.6180 c         1 MOL      0.730655
     77 O12         2.1370    6.3340   -0.1240 o         1 MOL     -0.556166
     78 H34         4.5240    5.6350    0.0310 hn        1 MOL      0.293960
     79 H35         3.0250    3.4550   -1.0280 h1        1 MOL      0.106295
     80 H36         3.1160    4.5760   -2.3260 h1        1 MOL      0.106295
     81 N9          0.8820    4.5600   -0.6630 n         1 MOL     -0.626251
     82 C25        -0.3660    5.0110   -0.0870 c3        1 MOL      0.169409
     83 C26        -1.3120    3.8890    0.3590 c         1 MOL      0.709838
     84 O13        -1.0610    2.6690    0.2830 o         1 MOL     -0.605572
     85 C27        -0.9880    5.9880   -1.1520 c3        1 MOL     -0.162287
     86 C28        -2.1610    6.8890   -0.6930 ca        1 MOL      0.102824
     87 C29        -3.3950    6.8960   -1.3440 ca        1 MOL     -0.183308
     88 C30        -2.0590    7.5870    0.5530 ca        1 MOL     -0.183308
     89 C31        -4.4680    7.6380   -0.8750 ca        1 MOL     -0.234458
     90 C32        -3.1470    8.3400    1.0060 ca        1 MOL     -0.234458
     91 C33        -4.3720    8.3360    0.3590 ca        1 MOL      0.320853
     92 O14        -5.4670    8.9910    0.8860 oh        1 MOL     -0.481619
     93 H37         0.8360    3.7480   -1.2600 hn        1 MOL      0.296231
     94 H38        -0.1680    5.5990    0.8120 h1        1 MOL      0.052476
     95 H39        -1.3800    5.3860   -1.9640 hc        1 MOL      0.061830
     96 H40        -0.2400    6.6950   -1.5120 hc        1 MOL      0.061830
     97 H41        -3.4370    6.3310   -2.2690 ha        1 MOL      0.141844
     98 H42        -1.0720    7.6430    0.9830 ha        1 MOL      0.141844
     99 H43        -5.3010    7.7110   -1.5540 ha        1 MOL      0.149550
    100 H44        -3.0270    8.9260    1.9060 ha        1 MOL      0.149550
    101 H45        -5.2380    9.2570    1.7830 ho        1 MOL      0.353348
    102 N10        -2.3550    4.3000    1.0740 n         1 MOL     -0.552491
    103 C34        -3.4050    3.4270    1.5690 c3        1 MOL     -0.074676
    104 C35        -4.4020    3.2120    0.3590 c         1 MOL      0.504278
    105 O15        -4.6870    4.0930   -0.3730 o         1 MOL     -0.483147
    106 C36        -3.9190    4.0070    2.8610 c3        1 MOL      0.405967
    107 C37        -5.0090    5.0910    2.7320 c3        1 MOL     -0.091581
    108 C38        -4.3920    2.8770    3.7680 c3        1 MOL     -0.343633
    109 C39        -5.3430    5.8070    4.0100 c3        1 MOL     -0.214110
    110 H46        -2.5190    5.2970    1.1350 hn        1 MOL      0.209089
    111 H47        -2.8590    2.5000    1.7540 h1        1 MOL      0.093465
    112 H48        -3.0780    4.5230    3.3310 hc        1 MOL     -0.043542
    113 H49        -5.8950    4.5710    2.3500 hc        1 MOL      0.054602
    114 H50        -4.6210    5.8400    2.0350 hc        1 MOL      0.054602
    115 H51        -4.6370    3.3180    4.7330 hc        1 MOL      0.079381
    116 H52        -5.3310    2.4690    3.3750 hc        1 MOL      0.079381
    117 H53        -3.6930    2.0590    3.9450 hc        1 MOL      0.079381
    118 H54        -5.8600    6.7100    3.6890 hc        1 MOL      0.051599
    119 H55        -5.9400    5.2230    4.7060 hc        1 MOL      0.051599
    120 H56        -4.3930    6.1950    4.3740 hc        1 MOL      0.051599
    121 N11        -5.0300    2.0880    0.3170 n         1 MOL     -0.336682
    122 C40        -6.2370    1.7670   -0.5340 c3        1 MOL     -0.075877
    123 C41        -6.0470    0.3960   -1.2030 c         1 MOL      0.785165
    124 O16        -5.2670   -0.4460   -0.6770 o         1 MOL     -0.597380
    125 C42        -7.4980    1.7140    0.3820 c3        1 MOL      0.061924
    126 O17        -7.4000    0.7040    1.3000 oh        1 MOL     -0.605839
    127 H57        -4.8840    1.3480    0.9870 hn        1 MOL      0.252519
    128 H58        -6.4240    2.4760   -1.3430 h1        1 MOL      0.079264
    129 H59        -8.3970    1.7000   -0.2230 h1        1 MOL      0.052410
    130 H60        -7.5280    2.6730    0.9070 h1        1 MOL      0.052410
    131 H61        -8.1270    0.0870    1.2570 ho        1 MOL      0.452226
    132 N12        -6.5580    0.1690   -2.4550 n         1 MOL     -0.665059
    133 C43        -6.2780   -0.9690   -3.2740 c3        1 MOL      0.271049
    134 C44        -6.5520   -2.3070   -2.5520 c         1 MOL      0.277660
    135 O18        -5.6110   -3.1370   -2.5360 o         1 MOL     -0.385671
    136 C45        -4.8450   -0.8490   -3.8480 c3        1 MOL     -0.222462
    137 H62        -7.2010    0.8160   -2.8860 hn        1 MOL      0.324738
    138 H63        -6.9430   -0.9440   -4.1380 h1        1 MOL      0.038648
    139 H64        -4.7770    0.1120   -4.3500 hc        1 MOL      0.064618
    140 H65        -4.1390   -0.8510   -3.0060 hc        1 MOL      0.064618
    141 H66        -4.5990   -1.5870   -4.6150 hc        1 MOL      0.064618
    142 N13        -7.7620   -2.4490   -2.0170 n         1 MOL     -0.376308
    143 C46        -8.2710   -3.6440   -1.4420 c3        1 MOL      0.244665
    144 C47        -7.3400   -4.2580   -0.2910 c         1 MOL      0.223630
    145 O19        -7.3760   -5.4730    0.0330 o         1 MOL     -0.476460
    146 C48        -8.7120   -4.6530   -2.5270 c3        1 MOL     -0.422824
    147 H67        -8.3300   -1.6210   -1.9350 hn        1 MOL      0.235947
    148 H68        -9.1770   -3.3180   -0.9280 h1        1 MOL      0.037910
    149 H69        -9.1200   -4.1320   -3.3880 hc        1 MOL      0.129802
    150 H70        -7.8470   -5.2000   -2.9090 hc        1 MOL      0.129802
    151 H71        -9.4770   -5.3380   -2.1740 hc        1 MOL      0.129802
    152 N14        -6.6130   -3.4350    0.4810 n         1 MOL     -0.012918
    153 C49        -5.6040   -3.8480    1.5210 c3        1 MOL     -0.194437
    154 C50        -6.2560   -3.8080    2.9620 c         1 MOL      0.408568
    155 O20        -5.7800   -4.5210    3.8340 o         1 MOL     -0.497521
    156 C51        -4.3540   -3.0120    1.2960 c3        1 MOL      0.369093
    157 C52        -3.1520   -3.5470    2.0650 c3        1 MOL     -0.322759
    158 C53        -2.5070   -4.7720    1.3790 c         1 MOL      0.547034
    159 O21        -1.6180   -4.4990    0.5260 o         1 MOL     -0.635636
    160 O22        -2.8890   -5.9500    1.5670 o         1 MOL     -0.635636
    161 H72        -6.7650   -2.4630    0.3040 hn        1 MOL      0.069517
    162 H73        -5.2810   -4.8590    1.2640 h1        1 MOL      0.241724
    163 H74        -4.5950   -2.0100    1.6460 hc        1 MOL     -0.100220
    164 H75        -4.0110   -3.0500    0.2660 hc        1 MOL     -0.100220
    165 H76        -3.3480   -3.6530    3.1280 hc        1 MOL      0.063481
    166 H77        -2.4420   -2.7360    2.2380 hc        1 MOL      0.063481
    167 N15        -7.2510   -2.9620    3.1910 n         1 MOL     -0.187435
    168 C54        -7.9940   -2.7800    4.4420 c3        1 MOL     -0.012368
    169 H78        -7.4890   -3.3160    5.2450 h1        1 MOL      0.047858
    170 H79        -8.0400   -1.7190    4.6870 h1        1 MOL      0.047858
    171 H80        -9.0050   -3.1700    4.3250 h1        1 MOL      0.047858
    172 H81        -7.6530   -2.5750    2.3500 hn        1 MOL      0.131730
    173 Ca1        -0.1450   -4.2110   -1.6200 Ca        1 MOL      1.684573
    174 O23        -2.6920   -3.5750   -2.2680 oh        1 MOL     -0.822909
    175 H82        -3.1770   -3.2470   -3.0250 ho        1 MOL      0.415976
    176 H83        -2.8740   -2.9420   -1.5760 ho        1 MOL      0.415976
    177 O24        -0.7700   -4.8830   -4.0940 oh        1 MOL     -0.822909
    178 H84        -1.5120   -5.3340   -4.5040 ho        1 MOL      0.415976
    179 H85        -0.3350   -4.4470   -4.8260 ho        1 MOL      0.415976
    180 O25         1.6520   -4.5190    0.2420 oh        1 MOL     -0.822909
    181 H86         2.4160   -5.0580    0.4350 ho        1 MOL      0.415976
    182 H87         1.5450   -3.9530    1.0070 ho        1 MOL      0.415976
    183 O26        -0.1720   -2.3060    0.4060 oh        1 MOL     -0.822909
    184 H88        -1.0520   -2.0090    0.1770 ho        1 MOL      0.415976
    185 H89        -0.2180   -2.5000    1.3410 ho        1 MOL      0.415976
    186 O27        -0.4080   -1.6460   -2.5940 oh        1 MOL     -0.822909
    187 H90         0.2600   -1.1960   -2.0810 ho        1 MOL      0.415976
    188 H91        -0.7790   -0.9630   -3.1610 ho        1 MOL      0.415976
    189 O28        -0.5630   -6.7600   -1.7990 oh        1 MOL     -0.822909
    190 H92        -0.6730   -7.2720   -1.0000 ho        1 MOL      0.415976
    191 H93        -0.4430   -7.4160   -2.4820 ho        1 MOL      0.415976
@<TRIPOS>BOND
     1    1    2 1   
     2    1    4 1   
     3    1    5 1   
     4    1    6 1   
     5    2    3 2   
     6    2    7 1   
     7    7    8 1   
     8    7   15 1   
     9    8    9 1   
    10    8   11 1   
    11    8   16 1   
    12    9   10 2   
    13    9   19 1   
    14   11   12 1   
    15   11   17 1   
    16   11   18 1   
    17   12   13 1   
    18   12   14 1   
    19   19   20 1   
    20   19   28 1   
    21   20   21 1   
    22   20   23 1   
    23   20   29 1   
    24   21   22 2   
    25   21   41 1   
    26   23   24 1   
    27   23   30 1   
    28   23   31 1   
    29   24   25 1   
    30   24   32 1   
    31   24   33 1   
    32   25   26 1   
    33   25   34 1   
    34   25   35 1   
    35   26   27 1   
    36   26   36 1   
    37   26   37 1   
    38   27   38 1   
    39   27   39 1   
    40   27   40 1   
    41   41   42 1   
    42   41   49 1   
    43   42   43 1   
    44   42   45 1   
    45   42   50 1   
    46   43   44 2   
    47   43   53 1   
    48   45   46 1   
    49   45   51 1   
    50   45   52 1   
    51   46   47 1   
    52   46   48 1   
    53   53   54 1   
    54   53   57 1   
    55   54   55 1   
    56   54   58 1   
    57   54   59 1   
    58   55   56 2   
    59   55   60 1   
    60   60   61 1   
    61   60   68 1   
    62   61   62 1   
    63   61   64 1   
    64   61   69 1   
    65   62   63 2   
    66   62   74 1   
    67   64   65 1   
    68   64   70 1   
    69   64   71 1   
    70   65   66 1   
    71   65   67 2   
    72   66   72 1   
    73   66   73 1   
    74   74   75 1   
    75   74   78 1   
    76   75   76 1   
    77   75   79 1   
    78   75   80 1   
    79   76   77 2   
    80   76   81 1   
    81   81   82 1   
    82   81   93 1   
    83   82   83 1   
    84   82   85 1   
    85   82   94 1   
    86   83   84 2   
    87   83  102 1   
    88   85   86 1   
    89   85   95 1   
    90   85   96 1   
    91   86   87 ar  
    92   86   88 ar  
    93   87   89 ar  
    94   87   97 1   
    95   88   90 ar  
    96   88   98 1   
    97   89   91 ar  
    98   89   99 1   
    99   90   91 ar  
   100   90  100 1   
   101   91   92 1   
   102   92  101 1   
   103  102  103 1   
   104  102  110 1   
   105  103  104 1   
   106  103  106 1   
   107  103  111 1   
   108  104  105 2   
   109  104  121 1   
   110  106  107 1   
   111  106  108 1   
   112  106  112 1   
   113  107  109 1   
   114  107  113 1   
   115  107  114 1   
   116  108  115 1   
   117  108  116 1   
   118  108  117 1   
   119  109  118 1   
   120  109  119 1   
   121  109  120 1   
   122  121  122 1   
   123  121  127 1   
   124  122  123 1   
   125  122  125 1   
   126  122  128 1   
   127  123  124 2   
   128  123  132 1   
   129  125  126 1   
   130  125  129 1   
   131  125  130 1   
   132  126  131 1   
   133  132  133 1   
   134  132  137 1   
   135  133  134 1   
   136  133  136 1   
   137  133  138 1   
   138  134  135 2   
   139  134  142 1   
   140  136  139 1   
   141  136  140 1   
   142  136  141 1   
   143  142  143 1   
   144  142  147 1   
   145  143  144 1   
   146  143  146 1   
   147  143  148 1   
   148  144  145 2   
   149  144  152 1   
   150  146  149 1   
   151  146  150 1   
   152  146  151 1   
   153  152  153 1   
   154  152  161 1   
   155  153  154 1   
   156  153  156 1   
   157  153  162 1   
   158  154  155 2   
   159  154  167 1   
   160  156  157 1   
   161  156  163 1   
   162  156  164 1   
   163  157  158 1   
   164  157  165 1   
   165  157  166 1   
   166  158  159 1   
   167  158  160 1   
   168  167  168 1   
   169  167  172 1   
   170  168  169 1   
   171  168  170 1   
   172  168  171 1   
   173  174  175 1   
   174  174  176 1   
   175  177  178 1   
   176  177  179 1   
   177  180  181 1   
   178  180  182 1   
   179  183  184 1   
   180  183  185 1   
   181  186  187 1   
   182  186  188 1   
   183  189  190 1   
   184  189  191 1   
@<TRIPOS>SUBSTRUCTURE
     1 MOL         1 TEMP              0 ****  ****    0 ROOT
