@<TRIPOS>MOLECULE
MOL
  188   182     1     0     0
SMALL
resp


@<TRIPOS>ATOM
      1 C1          6.2570    5.2130    0.8280 c3        1 MOL     -0.280771
      2 C2          7.0160    3.9350    1.1840 c         1 MOL      0.660972
      3 O1          6.4190    2.8940    1.5040 o         1 MOL     -0.611101
      4 H1          6.8530    5.8080    0.1360 hc        1 MOL      0.071493
      5 H2          5.3080    4.9540    0.3580 hc        1 MOL      0.071493
      6 H3          6.0690    5.7890    1.7340 hc        1 MOL      0.071493
      7 N1          8.3950    3.9660    1.0760 n         1 MOL     -0.440272
      8 C3          9.3040    2.8690    1.2850 c3        1 MOL      0.136571
      9 C4          9.0780    1.6220    0.3550 c         1 MOL      0.429469
     10 O2          8.6840    1.7240   -0.7880 o         1 MOL     -0.514110
     11 C5         10.7790    3.4220    1.2330 c3        1 MOL     -0.158822
     12 C6         10.9760    4.7170    2.0290 c         1 MOL      0.634259
     13 O3         10.2850    5.7440    1.8190 o         1 MOL     -0.660141
     14 O4         11.6700    4.6410    3.0950 o         1 MOL     -0.660141
     15 H4          8.8600    4.8550    0.9170 hn        1 MOL      0.252714
     16 H5          9.1470    2.4790    2.2850 h1        1 MOL      0.047707
     17 H6         10.9910    3.7300    0.2130 hc        1 MOL      0.021452
     18 H7         11.5240    2.6870    1.5350 hc        1 MOL      0.021452
     19 N2          9.3110    0.4410    0.9290 n         1 MOL     -0.436799
     20 C7          8.9730   -0.8750    0.3770 c3        1 MOL      0.249161
     21 C8          7.6150   -1.2730    1.0250 c         1 MOL      0.543592
     22 O5          7.6170   -2.1020    1.8960 o         1 MOL     -0.533513
     23 C9         10.1820   -1.7400    0.6880 c3        1 MOL     -0.071313
     24 C10        10.2580   -3.1290   -0.0810 c3        1 MOL     -0.101734
     25 C11        11.4820   -3.9160    0.0650 c3        1 MOL      0.121589
     26 C12        11.5420   -5.3360   -0.5600 c3        1 MOL     -0.143723
     27 N3         10.7460   -6.3280    0.1910 n4        1 MOL     -0.182015
     28 H8          9.6590    0.4270    1.8730 hn        1 MOL      0.245789
     29 H9          8.7280   -0.8270   -0.6830 h1        1 MOL      0.006515
     30 H10        10.2310   -1.9590    1.7510 hc        1 MOL      0.041269
     31 H11        11.0810   -1.2230    0.3620 hc        1 MOL      0.041269
     32 H12        10.2450   -2.9170   -1.1500 hc        1 MOL      0.033636
     33 H13         9.4070   -3.7180    0.2610 hc        1 MOL      0.033636
     34 H14        11.7280   -4.0190    1.1200 hc        1 MOL      0.013872
     35 H15        12.3230   -3.3110   -0.2890 hc        1 MOL      0.013872
     36 H16        12.5760   -5.6600   -0.6280 hx        1 MOL      0.115471
     37 H17        11.1930   -5.3930   -1.5930 hx        1 MOL      0.115471
     38 H18        11.0780   -6.2760    1.1510 hn        1 MOL      0.222054
     39 H19         9.7510   -6.1830    0.2110 hn        1 MOL      0.222054
     40 H20        10.9580   -7.2630   -0.1220 hn        1 MOL      0.222054
     41 N4          6.4980   -0.6870    0.4530 n         1 MOL     -0.589843
     42 C13         5.0610   -0.7950    0.8530 c3        1 MOL      0.021901
     43 C14         4.4600   -2.2500    0.7410 c         1 MOL      0.447178
     44 O6          4.5980   -2.7940   -0.3490 o         1 MOL     -0.477267
     45 C15         4.1910    0.2220   -0.0350 c3        1 MOL     -0.003593
     46 C16         2.7660    0.3320    0.5400 c         1 MOL      0.448692
     47 O7          1.9590   -0.6220    0.5450 o         1 MOL     -0.649291
     48 O8          2.3960    1.4030    1.0700 o         1 MOL     -0.649291
     49 H21         6.5900   -0.0000   -0.2780 hn        1 MOL      0.340216
     50 H22         5.0960   -0.4610    1.8890 h1        1 MOL      0.120568
     51 H23         4.1590   -0.0440   -1.0930 hc        1 MOL      0.044919
     52 H24         4.6400    1.2090    0.0560 hc        1 MOL      0.044919
     53 N5          3.9850   -2.8180    1.8520 n         1 MOL     -0.125715
     54 C17         3.6690   -4.2100    2.0220 c3        1 MOL     -0.421400
     55 C18         2.4340   -4.7080    1.2460 c         1 MOL      0.628374
     56 O9          2.3250   -5.9190    1.2380 o         1 MOL     -0.535028
     57 H25         4.0030   -2.2180    2.6630 hn        1 MOL      0.188631
     58 H26         3.4910   -4.3480    3.0910 h1        1 MOL      0.175898
     59 H27         4.5330   -4.7160    1.6050 h1        1 MOL      0.175898
     60 N6          1.7100   -3.7580    0.6080 n         1 MOL     -0.350376
     61 C19         0.6400   -4.0410   -0.3490 c3        1 MOL      0.013365
     62 C20         0.8300   -3.3360   -1.7160 c         1 MOL      0.309024
     63 O10        -0.1470   -3.2210   -2.4730 o         1 MOL     -0.406966
     64 C21        -0.7880   -4.0350    0.2680 c3        1 MOL     -0.240829
     65 C22        -1.5010   -2.6710    0.4620 c         1 MOL      0.546482
     66 N7         -2.7370   -2.6860    0.8760 n         1 MOL     -0.803213
     67 O11        -0.8520   -1.6520    0.3790 o         1 MOL     -0.519555
     68 H28         1.9320   -2.8010    0.7920 hn        1 MOL      0.134266
     69 H29         0.7800   -5.0480   -0.7200 h1        1 MOL      0.117803
     70 H30        -0.7930   -4.6680    1.1590 hc        1 MOL      0.104307
     71 H31        -1.3070   -4.5850   -0.5190 hc        1 MOL      0.104307
     72 H32        -3.2140   -3.5760    0.9400 hn        1 MOL      0.398630
     73 H33        -3.2230   -1.8090    0.9870 hn        1 MOL      0.398630
     74 N8          2.0420   -2.8210   -1.9480 n         1 MOL     -0.021439
     75 C23         2.4710   -2.2830   -3.1970 c3        1 MOL     -0.298077
     76 C24         1.8950   -0.8790   -3.5210 c         1 MOL      0.749460
     77 O12         2.0830   -0.5330   -4.6110 o         1 MOL     -0.554736
     78 H34         2.7660   -3.0040   -1.2710 hn        1 MOL      0.145872
     79 H35         2.1640   -2.8820   -4.0510 h1        1 MOL      0.120408
     80 H36         3.5580   -2.2420   -3.1140 h1        1 MOL      0.120408
     81 N9          1.2230   -0.1380   -2.6310 n         1 MOL     -0.481563
     82 C25         0.4430    1.0440   -2.9790 c3        1 MOL     -0.050999
     83 C26        -0.7730    1.2120   -2.0970 c         1 MOL      0.217980
     84 O13        -0.6660    0.9360   -0.9120 o         1 MOL     -0.539756
     85 C27         1.2850    2.3470   -2.8050 c3        1 MOL     -0.150610
     86 C28         0.5640    3.6630   -2.8920 ca        1 MOL     -0.021887
     87 C29        -0.1470    3.9580   -4.0640 ca        1 MOL     -0.121123
     88 C30         0.5140    4.5370   -1.7820 ca        1 MOL     -0.121123
     89 C31        -0.8700    5.1600   -4.1070 ca        1 MOL     -0.266768
     90 C32        -0.1500    5.7210   -1.8500 ca        1 MOL     -0.266768
     91 C33        -0.8930    5.9930   -3.0070 ca        1 MOL      0.395538
     92 O14        -1.5630    7.1600   -3.0910 oh        1 MOL     -0.473088
     93 H37         0.9610   -0.4900   -1.7240 hn        1 MOL      0.333118
     94 H38         0.1340    1.0020   -4.0180 h1        1 MOL      0.081687
     95 H39         2.2100    2.3190   -3.3890 hc        1 MOL      0.113151
     96 H40         1.6720    2.2480   -1.7820 hc        1 MOL      0.113151
     97 H41        -0.2280    3.2180   -4.8450 ha        1 MOL      0.127822
     98 H42         1.3210    4.3300   -1.0910 ha        1 MOL      0.127822
     99 H43        -1.3710    5.3860   -5.0370 ha        1 MOL      0.145045
    100 H44        -0.0760    6.3830   -1.0070 ha        1 MOL      0.145045
    101 H45        -1.4510    7.5420   -2.2120 ho        1 MOL      0.348953
    102 N10        -1.8990    1.6720   -2.6580 n         1 MOL      0.129593
    103 C34        -3.2160    1.4930   -1.9770 c3        1 MOL      0.010368
    104 C35        -3.4810    0.0190   -1.7590 c         1 MOL      0.253831
    105 O15        -3.9830   -0.3400   -0.6770 o         1 MOL     -0.441112
    106 C36        -4.2680    2.1460   -2.8750 c3        1 MOL      0.070414
    107 C37        -3.9690    3.5980   -3.1820 c3        1 MOL     -0.263236
    108 C38        -5.6970    2.0740   -2.2340 c3        1 MOL     -0.304009
    109 C39        -3.8360    4.4880   -1.9520 c3        1 MOL     -0.511159
    110 H46        -1.8170    1.8610   -3.6470 hn        1 MOL      0.140476
    111 H47        -3.1140    1.8930   -0.9690 h1        1 MOL      0.040758
    112 H48        -4.3850    1.6710   -3.8430 hc        1 MOL     -0.011740
    113 H49        -4.7810    4.0670   -3.7480 hc        1 MOL      0.134168
    114 H50        -3.0600    3.6690   -3.7820 hc        1 MOL      0.134168
    115 H51        -5.9490    1.0100   -2.2050 hc        1 MOL      0.107372
    116 H52        -5.5780    2.4940   -1.2400 hc        1 MOL      0.107372
    117 H53        -6.4160    2.5470   -2.9060 hc        1 MOL      0.107372
    118 H54        -4.0740    5.5020   -2.2800 hc        1 MOL      0.149331
    119 H55        -4.6230    4.3210   -1.2190 hc        1 MOL      0.149331
    120 H56        -2.8070    4.3890   -1.6090 hc        1 MOL      0.149331
    121 N11        -3.2950   -0.8710   -2.7910 n         1 MOL     -0.039445
    122 C40        -3.5730   -2.3060   -2.8450 c3        1 MOL     -0.140996
    123 C41        -5.0070   -2.7240   -2.5910 c         1 MOL      0.444494
    124 O16        -5.2050   -3.8600   -2.1770 o         1 MOL     -0.502576
    125 C42        -3.0300   -2.9130   -4.1470 c3        1 MOL      0.318073
    126 O17        -1.7530   -2.4170   -4.4390 oh        1 MOL     -0.591076
    127 H57        -2.9170   -0.4580   -3.6370 hn        1 MOL      0.116234
    128 H58        -2.9580   -2.7760   -2.0760 h1        1 MOL      0.094206
    129 H59        -3.8060   -2.7920   -4.8920 h1        1 MOL      0.005684
    130 H60        -2.9990   -3.9930   -3.9820 h1        1 MOL      0.005684
    131 H61        -1.1510   -2.7380   -3.7630 ho        1 MOL      0.319683
    132 N12        -5.9370   -1.8040   -2.8770 n         1 MOL     -0.403603
    133 C43        -7.3620   -1.8930   -2.5940 c3        1 MOL      0.240783
    134 C44        -7.7730   -2.1880   -1.1250 c         1 MOL      0.377313
    135 O18        -8.8870   -2.6650   -0.9580 o         1 MOL     -0.502541
    136 C45        -7.9590   -2.9010   -3.6130 c3        1 MOL     -0.507848
    137 H62        -5.5870   -0.9760   -3.3350 hn        1 MOL      0.264952
    138 H63        -7.7680   -0.9060   -2.8160 h1        1 MOL      0.055030
    139 H64        -7.5410   -3.9050   -3.6160 hc        1 MOL      0.147413
    140 H65        -9.0150   -3.0570   -3.4370 hc        1 MOL      0.147413
    141 H66        -7.7780   -2.4210   -4.5750 hc        1 MOL      0.147413
    142 N13        -6.9720   -1.8560   -0.1010 n         1 MOL     -0.237308
    143 C46        -7.3630   -1.8810    1.3050 c3        1 MOL      0.050792
    144 C47        -8.0680   -0.5830    1.5870 c         1 MOL      0.491324
    145 O19        -7.6870    0.4860    1.0670 o         1 MOL     -0.519279
    146 C48        -6.0180   -1.9780    2.0540 c3        1 MOL      0.013724
    147 H67        -6.0840   -1.4160   -0.3280 hn        1 MOL      0.127820
    148 H68        -7.9830   -2.7650    1.3970 h1        1 MOL      0.064397
    149 H69        -6.2130   -1.7730    3.1100 hc        1 MOL      0.001711
    150 H70        -5.5910   -2.9770    1.9600 hc        1 MOL      0.001711
    151 H71        -5.2450   -1.2940    1.7200 hc        1 MOL      0.001711
    152 N14        -9.1150   -0.7060    2.3980 n         1 MOL     -0.420943
    153 C49       -10.0580    0.3650    2.9320 c3        1 MOL     -0.022405
    154 C50       -10.6530    1.4300    1.9820 c         1 MOL      0.386709
    155 O20       -10.8290    2.5820    2.2250 o         1 MOL     -0.481071
    156 C51        -9.5030    1.0180    4.1600 c3        1 MOL      0.485345
    157 C52        -9.2270    0.0330    5.2650 c3        1 MOL     -0.401333
    158 C53        -8.1620    0.4650    6.2930 c         1 MOL      0.802946
    159 O21        -7.3150    1.3120    6.0620 o         1 MOL     -0.683505
    160 O22        -8.1520   -0.0380    7.4170 o         1 MOL     -0.683505
    161 H72        -9.2460   -1.6350    2.7900 hn        1 MOL      0.279139
    162 H73       -10.9210   -0.1860    3.2980 h1        1 MOL      0.028545
    163 H74       -10.0860    1.8710    4.5160 hc        1 MOL     -0.082546
    164 H75        -8.5180    1.4280    3.9190 hc        1 MOL     -0.082546
    165 H76        -8.9680   -0.9300    4.8350 hc        1 MOL      0.040131
    166 H77       -10.1430    0.0550    5.8580 hc        1 MOL      0.040131
    167 N15       -10.9550    1.0730    0.7170 n         1 MOL     -0.216194
    168 C54       -11.2780    2.1280   -0.2760 c3        1 MOL     -0.213198
    169 H78       -10.7280    3.0370   -0.0320 h1        1 MOL      0.101482
    170 H79       -10.9950    1.7880   -1.2730 h1        1 MOL      0.101482
    171 H80       -12.3480    2.3350   -0.2520 h1        1 MOL      0.101482
    172 H81       -10.9530    0.0880    0.4890 hn        1 MOL      0.199133
    173 Ca1        -0.1000    0.5700    1.5750 Ca        1 MOL      1.772524
    174 O23        -0.8230    1.9960    3.6460 oh        1 MOL     -0.831392
    175 H82        -1.5640    1.9550    4.2500 ho        1 MOL      0.418454
    176 H83        -0.1160    2.3860    4.1620 ho        1 MOL      0.418454
    177 O24         1.4850   -0.1860    3.7370 oh        1 MOL     -0.831392
    178 H84         1.6510   -0.0050    4.6580 ho        1 MOL      0.418454
    179 H85         1.7400   -1.1050    3.6190 ho        1 MOL      0.418454
    180 O25        -2.8900    0.8780    1.3250 oh        1 MOL     -0.831392
    181 H86        -3.3050    1.7090    1.5540 ho        1 MOL      0.418454
    182 H87        -3.3500    0.6000    0.5260 ho        1 MOL      0.418454
    183 O26         0.2170    3.2130    0.9920 oh        1 MOL     -0.831392
    184 H88         1.0940    3.6110    0.9710 ho        1 MOL      0.418454
    185 H89        -0.3620    3.9370    1.2040 ho        1 MOL      0.418454
    186 O27        -1.0620   -1.3340    3.1580 oh        1 MOL     -0.831392
    187 H90        -0.5070   -1.8540    3.7350 ho        1 MOL      0.418454
    188 H91        -1.9480   -1.6730    3.3010 ho        1 MOL      0.418454
@<TRIPOS>BOND
     1    1    2 1   
     2    1    4 1   
     3    1    5 1   
     4    1    6 1   
     5    2    3 2   
     6    2    7 1   
     7    7    8 1   
     8    7   15 1   
     9    8    9 1   
    10    8   11 1   
    11    8   16 1   
    12    9   10 2   
    13    9   19 1   
    14   11   12 1   
    15   11   17 1   
    16   11   18 1   
    17   12   13 1   
    18   12   14 1   
    19   19   20 1   
    20   19   28 1   
    21   20   21 1   
    22   20   23 1   
    23   20   29 1   
    24   21   22 2   
    25   21   41 1   
    26   23   24 1   
    27   23   30 1   
    28   23   31 1   
    29   24   25 1   
    30   24   32 1   
    31   24   33 1   
    32   25   26 1   
    33   25   34 1   
    34   25   35 1   
    35   26   27 1   
    36   26   36 1   
    37   26   37 1   
    38   27   38 1   
    39   27   39 1   
    40   27   40 1   
    41   41   42 1   
    42   41   49 1   
    43   42   43 1   
    44   42   45 1   
    45   42   50 1   
    46   43   44 2   
    47   43   53 1   
    48   45   46 1   
    49   45   51 1   
    50   45   52 1   
    51   46   47 1   
    52   46   48 1   
    53   53   54 1   
    54   53   57 1   
    55   54   55 1   
    56   54   58 1   
    57   54   59 1   
    58   55   56 2   
    59   55   60 1   
    60   60   61 1   
    61   60   68 1   
    62   61   62 1   
    63   61   64 1   
    64   61   69 1   
    65   62   63 2   
    66   62   74 1   
    67   64   65 1   
    68   64   70 1   
    69   64   71 1   
    70   65   66 1   
    71   65   67 2   
    72   66   72 1   
    73   66   73 1   
    74   74   75 1   
    75   74   78 1   
    76   75   76 1   
    77   75   79 1   
    78   75   80 1   
    79   76   77 2   
    80   76   81 1   
    81   81   82 1   
    82   81   93 1   
    83   82   83 1   
    84   82   85 1   
    85   82   94 1   
    86   83   84 2   
    87   83  102 1   
    88   85   86 1   
    89   85   95 1   
    90   85   96 1   
    91   86   87 ar  
    92   86   88 ar  
    93   87   89 ar  
    94   87   97 1   
    95   88   90 ar  
    96   88   98 1   
    97   89   91 ar  
    98   89   99 1   
    99   90   91 ar  
   100   90  100 1   
   101   91   92 1   
   102   92  101 1   
   103  102  103 1   
   104  102  110 1   
   105  103  104 1   
   106  103  106 1   
   107  103  111 1   
   108  104  105 2   
   109  104  121 1   
   110  106  107 1   
   111  106  108 1   
   112  106  112 1   
   113  107  109 1   
   114  107  113 1   
   115  107  114 1   
   116  108  115 1   
   117  108  116 1   
   118  108  117 1   
   119  109  118 1   
   120  109  119 1   
   121  109  120 1   
   122  121  122 1   
   123  121  127 1   
   124  122  123 1   
   125  122  125 1   
   126  122  128 1   
   127  123  124 2   
   128  123  132 1   
   129  125  126 1   
   130  125  129 1   
   131  125  130 1   
   132  126  131 1   
   133  132  133 1   
   134  132  137 1   
   135  133  134 1   
   136  133  136 1   
   137  133  138 1   
   138  134  135 2   
   139  134  142 1   
   140  136  139 1   
   141  136  140 1   
   142  136  141 1   
   143  142  143 1   
   144  142  147 1   
   145  143  144 1   
   146  143  146 1   
   147  143  148 1   
   148  144  145 2   
   149  144  152 1   
   150  146  149 1   
   151  146  150 1   
   152  146  151 1   
   153  152  153 1   
   154  152  161 1   
   155  153  154 1   
   156  153  156 1   
   157  153  162 1   
   158  154  155 2   
   159  154  167 1   
   160  156  157 1   
   161  156  163 1   
   162  156  164 1   
   163  157  158 1   
   164  157  165 1   
   165  157  166 1   
   166  158  159 1   
   167  158  160 1   
   168  167  168 1   
   169  167  172 1   
   170  168  169 1   
   171  168  170 1   
   172  168  171 1   
   173  174  175 1   
   174  174  176 1   
   175  177  178 1   
   176  177  179 1   
   177  180  181 1   
   178  180  182 1   
   179  183  184 1   
   180  183  185 1   
   181  186  187 1   
   182  186  188 1   
@<TRIPOS>SUBSTRUCTURE
     1 MOL         1 TEMP              0 ****  ****    0 ROOT
