@<TRIPOS>MOLECULE
MOL
  182   178     1     0     0
SMALL
resp


@<TRIPOS>ATOM
      1 C1          0.6430   -4.2250    5.9630 c3        1 MOL     -0.439797
      2 C2          0.7890   -4.0690    4.4510 c         1 MOL      0.703933
      3 O1         -0.2470   -4.2000    3.7950 o         1 MOL     -0.549218
      4 H1         -0.2140   -3.6450    6.3060 hc        1 MOL      0.127225
      5 H2          0.4910   -5.2760    6.2080 hc        1 MOL      0.127225
      6 H3          1.5460   -3.8640    6.4560 hc        1 MOL      0.127225
      7 N1          1.9860   -3.8570    3.8570 n         1 MOL     -0.521948
      8 C3          2.0940   -3.5050    2.4450 c3        1 MOL      0.022983
      9 C4          2.2230   -4.7660    1.5330 c         1 MOL      0.556878
     10 O2          2.5370   -5.8530    2.0450 o         1 MOL     -0.561076
     11 C5          3.2710   -2.6040    2.2450 c3        1 MOL     -0.037512
     12 C6          3.3730   -1.8390    0.9220 c         1 MOL      0.305415
     13 O3          4.0810   -0.8490    0.8600 o         1 MOL     -0.604449
     14 O4          2.6760   -2.0870   -0.0710 o         1 MOL     -0.604449
     15 H4          2.8420   -3.8120    4.3780 hn        1 MOL      0.311699
     16 H5          1.1710   -2.9500    2.2880 h1        1 MOL     -0.007982
     17 H6          4.2200   -3.1210    2.3760 hc        1 MOL      0.074907
     18 H7          3.3140   -1.8790    3.0590 hc        1 MOL      0.074907
     19 N2          1.9760   -4.6590    0.2210 n         1 MOL     -0.338367
     20 C7          2.0350   -5.7130   -0.7670 c3        1 MOL      0.090941
     21 C8          3.2050   -5.4390   -1.6980 c         1 MOL      0.410967
     22 O5          3.5990   -6.3550   -2.4190 o         1 MOL     -0.552698
     23 C9          0.7390   -5.9130   -1.5710 c3        1 MOL     -0.152745
     24 C10        -0.4490   -6.3790   -0.8210 c3        1 MOL      0.071979
     25 C11        -1.5800   -6.6690   -1.7820 c3        1 MOL     -0.052905
     26 C12        -2.7260   -7.2990   -1.0980 c3        1 MOL      0.141431
     27 N3         -3.9330   -7.4960   -1.9750 n4        1 MOL     -0.308248
     28 H8          1.8170   -3.7230   -0.1160 hn        1 MOL      0.267985
     29 H9          2.1870   -6.6780   -0.2860 h1        1 MOL      0.076676
     30 H10         1.0230   -6.6940   -2.2790 hc        1 MOL      0.058487
     31 H11         0.4560   -4.9780   -2.0460 hc        1 MOL      0.058487
     32 H12        -0.7170   -5.6640   -0.0370 hc        1 MOL      0.008623
     33 H13        -0.3270   -7.3410   -0.3180 hc        1 MOL      0.008623
     34 H14        -1.2860   -7.4230   -2.5020 hc        1 MOL      0.029585
     35 H15        -1.8370   -5.7580   -2.3180 hc        1 MOL      0.029585
     36 H16        -3.0620   -6.6830   -0.2570 hx        1 MOL      0.051017
     37 H17        -2.4120   -8.2180   -0.6180 hx        1 MOL      0.051017
     38 H18        -3.7160   -8.0110   -2.8110 hn        1 MOL      0.269216
     39 H19        -4.5550   -8.0710   -1.4440 hn        1 MOL      0.269216
     40 H20        -4.4300   -6.6500   -2.2400 hn        1 MOL      0.269216
     41 N4          3.7450   -4.2590   -1.7090 n         1 MOL     -0.249254
     42 C13         4.9510   -3.9100   -2.5540 c3        1 MOL      0.125016
     43 C14         6.1170   -3.3700   -1.7390 c         1 MOL      0.362825
     44 O6          7.2290   -3.0860   -2.2530 o         1 MOL     -0.511595
     45 C15         4.6780   -3.0200   -3.7300 c3        1 MOL     -0.227426
     46 C16         4.0030   -1.7080   -3.2370 c         1 MOL      0.702670
     47 O7          4.7050   -0.9190   -2.5140 o         1 MOL     -0.712931
     48 O8          2.7970   -1.5060   -3.4310 o         1 MOL     -0.712931
     49 H21         3.4380   -3.6540   -0.9630 hn        1 MOL      0.174686
     50 H22         5.4080   -4.8110   -2.9700 h1        1 MOL      0.096985
     51 H23         4.0500   -3.5540   -4.4400 hc        1 MOL      0.072401
     52 H24         5.6000   -2.8030   -4.2560 hc        1 MOL      0.072401
     53 N5          5.9130   -3.2030   -0.4010 n         1 MOL     -0.235888
     54 C17         6.9100   -2.7430    0.5900 c3        1 MOL     -0.037475
     55 C18         7.4640   -1.2840    0.3930 c         1 MOL      0.424734
     56 O9          8.3900   -0.8590    1.1270 o         1 MOL     -0.566036
     57 H25         5.0240   -3.5660   -0.1240 hn        1 MOL      0.144781
     58 H26         7.7500   -3.4300    0.6490 h1        1 MOL      0.084585
     59 H27         6.5100   -2.8470    1.5960 h1        1 MOL      0.084585
     60 N6          6.8090   -0.4960   -0.4780 n         1 MOL     -0.068282
     61 C19         7.2360    0.8730   -0.6920 c3        1 MOL     -0.056056
     62 C20         6.2380    1.8350   -0.0670 c         1 MOL      0.438276
     63 O10         5.0310    1.6580   -0.1700 o         1 MOL     -0.382236
     64 C21         7.3890    1.0540   -2.2300 c3        1 MOL     -0.095048
     65 C22         7.9820    2.4370   -2.5910 c         1 MOL      0.572336
     66 N7          9.2380    2.4610   -2.9820 n         1 MOL     -0.767122
     67 O11         7.2780    3.3890   -2.5360 o         1 MOL     -0.538080
     68 H28         6.0330   -0.9090   -0.9650 hn        1 MOL      0.124924
     69 H29         8.2410    0.9810   -0.2820 h1        1 MOL      0.057735
     70 H30         6.4890    0.8850   -2.8070 hc        1 MOL      0.070857
     71 H31         8.0610    0.2720   -2.6180 hc        1 MOL      0.070857
     72 H32         9.8460    1.6550   -2.9990 hn        1 MOL      0.359765
     73 H33         9.6100    3.3830   -3.1650 hn        1 MOL      0.359765
     74 N8          6.7890    2.8950    0.5480 n         1 MOL     -0.358051
     75 C23         6.1890    4.2140    0.5970 c3        1 MOL     -0.119595
     76 C24         4.7730    4.1640    1.2880 c         1 MOL      0.533609
     77 O12         4.6840    3.6960    2.4370 o         1 MOL     -0.501158
     78 H34         7.7770    2.8840    0.7700 hn        1 MOL      0.303900
     79 H35         6.2010    4.6110   -0.4150 h1        1 MOL      0.088270
     80 H36         6.8420    4.7790    1.2600 h1        1 MOL      0.088270
     81 N9          3.7090    4.6680    0.6440 n         1 MOL     -0.508557
     82 C25         2.2550    4.5250    1.0030 c3        1 MOL      0.190049
     83 C26         1.7830    3.0860    1.2140 c         1 MOL      0.680526
     84 O13         2.3030    2.1950    0.5910 o         1 MOL     -0.631598
     85 C27         1.4440    5.3130    0.0020 c3        1 MOL     -0.172949
     86 C28         1.7400    6.8540   -0.1680 ca        1 MOL     -0.039531
     87 C29         2.2490    7.3770   -1.3400 ca        1 MOL     -0.075495
     88 C30         1.2520    7.7040    0.8330 ca        1 MOL     -0.075495
     89 C31         2.2540    8.7240   -1.6440 ca        1 MOL     -0.317557
     90 C32         1.2730    9.0570    0.5460 ca        1 MOL     -0.317557
     91 C33         1.6730    9.5490   -0.6990 ca        1 MOL      0.416065
     92 O14         1.4420   10.8370   -1.0540 oh        1 MOL     -0.499707
     93 H37         3.8990    5.1250   -0.2430 hn        1 MOL      0.287213
     94 H38         2.1210    4.9610    1.9950 h1        1 MOL      0.041043
     95 H39         0.3720    5.2650    0.2030 hc        1 MOL      0.061354
     96 H40         1.6290    4.8460   -0.9700 hc        1 MOL      0.061354
     97 H41         2.4930    6.7200   -2.1610 ha        1 MOL      0.120939
     98 H42         0.7950    7.3920    1.7640 ha        1 MOL      0.120939
     99 H43         2.5820    9.0420   -2.6180 ha        1 MOL      0.166740
    100 H44         0.8980    9.8080    1.2280 ha        1 MOL      0.166740
    101 H45         1.6990   10.9700   -1.9680 ho        1 MOL      0.366887
    102 N10         0.8150    2.8500    2.0390 n         1 MOL     -0.718429
    103 C34         0.3870    1.5810    2.6390 c3        1 MOL      0.177531
    104 C35         0.0850    0.5060    1.5890 c         1 MOL      0.577525
    105 O15         0.9710    0.0030    0.9070 o         1 MOL     -0.416070
    106 C36         1.3360    1.1310    3.7960 c3        1 MOL      0.203050
    107 C37         0.8350   -0.0220    4.6590 c3        1 MOL     -0.098304
    108 C38         1.9000    2.3080    4.5860 c3        1 MOL     -0.157376
    109 C39        -0.0940    0.2920    5.8560 c3        1 MOL     -0.262493
    110 H46         0.5130    3.7160    2.4640 hn        1 MOL      0.315940
    111 H47        -0.5420    1.7690    3.1820 h1        1 MOL      0.025636
    112 H48         2.1590    0.6490    3.2890 hc        1 MOL      0.024778
    113 H49         1.7520   -0.4820    5.0340 hc        1 MOL      0.038515
    114 H50         0.4000   -0.7600    3.9960 hc        1 MOL      0.038515
    115 H51         1.1400    2.7890    5.2030 hc        1 MOL      0.042580
    116 H52         2.5760    1.8270    5.2950 hc        1 MOL      0.042580
    117 H53         2.4520    3.1110    4.0920 hc        1 MOL      0.042580
    118 H54         0.3080    1.0850    6.4930 hc        1 MOL      0.068988
    119 H55        -1.0920    0.5320    5.4810 hc        1 MOL      0.068988
    120 H56        -0.3200   -0.5730    6.4730 hc        1 MOL      0.068988
    121 N11        -1.2020    0.1320    1.4830 n         1 MOL     -0.578971
    122 C40        -1.6810   -1.0460    0.7740 c3        1 MOL     -0.002884
    123 C41        -3.1560   -1.0400    0.3160 c         1 MOL      0.589259
    124 O16        -3.5000   -1.8750   -0.5360 o         1 MOL     -0.543455
    125 C42        -1.5940   -2.2990    1.7200 c3        1 MOL      0.151341
    126 O17        -1.7680   -2.0050    3.1330 oh        1 MOL     -0.543652
    127 H57        -1.8350    0.6410    2.0800 hn        1 MOL      0.290251
    128 H58        -1.0800   -1.2330   -0.1120 h1        1 MOL      0.086069
    129 H59        -0.6290   -2.7530    1.4960 h1        1 MOL      0.023554
    130 H60        -2.3470   -3.0450    1.4600 h1        1 MOL      0.023554
    131 H61        -1.4530   -2.8040    3.5480 ho        1 MOL      0.353028
    132 N12        -4.0530   -0.1730    0.9120 n         1 MOL     -0.507271
    133 C43        -5.4350    0.0310    0.4100 c3        1 MOL      0.019576
    134 C44        -5.4740    0.7180   -1.0090 c         1 MOL      0.580131
    135 O18        -4.4460    1.1270   -1.5290 o         1 MOL     -0.553987
    136 C45        -6.1920    0.7870    1.5460 c3        1 MOL     -0.192355
    137 H62        -3.7560    0.4140    1.6700 hn        1 MOL      0.330778
    138 H63        -5.9220   -0.9450    0.3780 h1        1 MOL      0.127197
    139 H64        -5.6460    1.6800    1.8800 hc        1 MOL      0.069121
    140 H65        -7.2230    1.1140    1.4340 hc        1 MOL      0.069121
    141 H66        -6.1220    0.1510    2.4310 hc        1 MOL      0.069121
    142 N13        -6.6440    0.7430   -1.7290 n         1 MOL     -0.573381
    143 C46        -7.9510    0.2880   -1.4180 c3        1 MOL      0.491008
    144 C47        -9.1020    1.0890   -2.1810 c         1 MOL      0.408239
    145 O19        -8.8650    1.5320   -3.3060 o         1 MOL     -0.545936
    146 C48        -7.9760   -1.2230   -1.6490 c3        1 MOL     -0.363269
    147 H67        -6.5140    1.2800   -2.5800 hn        1 MOL      0.294131
    148 H68        -8.1160    0.4500   -0.3530 h1        1 MOL     -0.098974
    149 H69        -7.2270   -1.7380   -1.0500 hc        1 MOL      0.089235
    150 H70        -8.9600   -1.6570   -1.5030 hc        1 MOL      0.089235
    151 H71        -7.6910   -1.3510   -2.6890 hc        1 MOL      0.089235
    152 N14       -10.2840    1.2320   -1.6420 n         1 MOL     -0.480639
    153 C49       -10.8040    0.8860   -0.2810 c3        1 MOL     -0.043546
    154 C50       -10.2890    1.9360    0.6960 c         1 MOL      0.402749
    155 O20        -9.9520    1.5450    1.8250 o         1 MOL     -0.492156
    156 C51       -12.3480    0.7480   -0.2670 c3        1 MOL      0.242153
    157 C52       -12.7970   -0.4180   -1.1230 c3        1 MOL     -0.119357
    158 C53       -14.3400   -0.5970   -1.0690 c         1 MOL      0.644256
    159 O21       -14.7600   -1.6210   -0.4820 o         1 MOL     -0.647148
    160 O22       -15.0840    0.2170   -1.6780 o         1 MOL     -0.647148
    161 H72       -10.9770    1.5750   -2.2960 hn        1 MOL      0.371790
    162 H73       -10.4650   -0.0950    0.0450 h1        1 MOL      0.118456
    163 H74       -12.7150    1.6490   -0.7610 hc        1 MOL     -0.050561
    164 H75       -12.7190    0.5990    0.7440 hc        1 MOL     -0.050561
    165 H76       -12.3070   -1.3060   -0.7060 hc        1 MOL     -0.018695
    166 H77       -12.5360   -0.1410   -2.1420 hc        1 MOL     -0.018695
    167 N15       -10.2480    3.2510    0.3280 n         1 MOL     -0.276616
    168 C54        -9.4160    4.1670    1.0700 c3        1 MOL     -0.326107
    169 H78        -9.7980    4.2620    2.0870 h1        1 MOL      0.135821
    170 H79        -8.3950    3.7880    1.1000 h1        1 MOL      0.135821
    171 H80        -9.4280    5.1430    0.5860 h1        1 MOL      0.135821
    172 H81       -10.6000    3.5400   -0.5740 hn        1 MOL      0.272710
    173 Ca1         2.6110    0.2830   -1.1250 Ca        1 MOL      1.746432
    174 O23         0.5790    2.1530   -1.8670 oh        1 MOL     -0.836179
    175 H82         0.2090    1.9220   -2.7240 ho        1 MOL      0.411777
    176 H83        -0.1190    2.6490   -1.4350 ho        1 MOL      0.411777
    177 O24         0.3290   -0.8070   -2.0420 oh        1 MOL     -0.836179
    178 H84        -0.4830   -0.2980   -2.0750 ho        1 MOL      0.411777
    179 H85         0.3530   -1.2800   -2.8700 ho        1 MOL      0.411777
    180 O25         3.4270    1.8330   -3.1860 oh        1 MOL     -0.836179
    181 H86         3.9110    2.6390   -3.3550 ho        1 MOL      0.411777
    182 H87         3.1410    1.5380   -4.0500 ho        1 MOL      0.411777
@<TRIPOS>BOND
     1    1    2 1   
     2    1    4 1   
     3    1    5 1   
     4    1    6 1   
     5    2    3 2   
     6    2    7 1   
     7    7    8 1   
     8    7   15 1   
     9    8    9 1   
    10    8   11 1   
    11    8   16 1   
    12    9   10 2   
    13    9   19 1   
    14   11   12 1   
    15   11   17 1   
    16   11   18 1   
    17   12   13 1   
    18   12   14 1   
    19   19   20 1   
    20   19   28 1   
    21   20   21 1   
    22   20   23 1   
    23   20   29 1   
    24   21   22 2   
    25   21   41 1   
    26   23   24 1   
    27   23   30 1   
    28   23   31 1   
    29   24   25 1   
    30   24   32 1   
    31   24   33 1   
    32   25   26 1   
    33   25   34 1   
    34   25   35 1   
    35   26   27 1   
    36   26   36 1   
    37   26   37 1   
    38   27   38 1   
    39   27   39 1   
    40   27   40 1   
    41   41   42 1   
    42   41   49 1   
    43   42   43 1   
    44   42   45 1   
    45   42   50 1   
    46   43   44 2   
    47   43   53 1   
    48   45   46 1   
    49   45   51 1   
    50   45   52 1   
    51   46   47 1   
    52   46   48 1   
    53   53   54 1   
    54   53   57 1   
    55   54   55 1   
    56   54   58 1   
    57   54   59 1   
    58   55   56 2   
    59   55   60 1   
    60   60   61 1   
    61   60   68 1   
    62   61   62 1   
    63   61   64 1   
    64   61   69 1   
    65   62   63 2   
    66   62   74 1   
    67   64   65 1   
    68   64   70 1   
    69   64   71 1   
    70   65   66 1   
    71   65   67 2   
    72   66   72 1   
    73   66   73 1   
    74   74   75 1   
    75   74   78 1   
    76   75   76 1   
    77   75   79 1   
    78   75   80 1   
    79   76   77 2   
    80   76   81 1   
    81   81   82 1   
    82   81   93 1   
    83   82   83 1   
    84   82   85 1   
    85   82   94 1   
    86   83   84 2   
    87   83  102 1   
    88   85   86 1   
    89   85   95 1   
    90   85   96 1   
    91   86   87 ar  
    92   86   88 ar  
    93   87   89 ar  
    94   87   97 1   
    95   88   90 ar  
    96   88   98 1   
    97   89   91 ar  
    98   89   99 1   
    99   90   91 ar  
   100   90  100 1   
   101   91   92 1   
   102   92  101 1   
   103  102  103 1   
   104  102  110 1   
   105  103  104 1   
   106  103  106 1   
   107  103  111 1   
   108  104  105 2   
   109  104  121 1   
   110  106  107 1   
   111  106  108 1   
   112  106  112 1   
   113  107  109 1   
   114  107  113 1   
   115  107  114 1   
   116  108  115 1   
   117  108  116 1   
   118  108  117 1   
   119  109  118 1   
   120  109  119 1   
   121  109  120 1   
   122  121  122 1   
   123  121  127 1   
   124  122  123 1   
   125  122  125 1   
   126  122  128 1   
   127  123  124 2   
   128  123  132 1   
   129  125  126 1   
   130  125  129 1   
   131  125  130 1   
   132  126  131 1   
   133  132  133 1   
   134  132  137 1   
   135  133  134 1   
   136  133  136 1   
   137  133  138 1   
   138  134  135 2   
   139  134  142 1   
   140  136  139 1   
   141  136  140 1   
   142  136  141 1   
   143  142  143 1   
   144  142  147 1   
   145  143  144 1   
   146  143  146 1   
   147  143  148 1   
   148  144  145 2   
   149  144  152 1   
   150  146  149 1   
   151  146  150 1   
   152  146  151 1   
   153  152  153 1   
   154  152  161 1   
   155  153  154 1   
   156  153  156 1   
   157  153  162 1   
   158  154  155 2   
   159  154  167 1   
   160  156  157 1   
   161  156  163 1   
   162  156  164 1   
   163  157  158 1   
   164  157  165 1   
   165  157  166 1   
   166  158  159 1   
   167  158  160 1   
   168  167  168 1   
   169  167  172 1   
   170  168  169 1   
   171  168  170 1   
   172  168  171 1   
   173  174  175 1   
   174  174  176 1   
   175  177  178 1   
   176  177  179 1   
   177  180  181 1   
   178  180  182 1   
@<TRIPOS>SUBSTRUCTURE
     1 MOL         1 TEMP              0 ****  ****    0 ROOT
