@<TRIPOS>MOLECULE
MOL
  184   179     1     0     0
SMALL
resp


@<TRIPOS>ATOM
      1 C1         -2.7670   -1.4410   -4.5690 c3        1 MOL     -0.359473
      2 C2         -3.9410   -0.8770   -3.7500 c         1 MOL      0.848548
      3 O1         -3.6870   -0.1220   -2.8300 o         1 MOL     -0.590591
      4 H1         -1.8410   -1.3180   -4.0080 hc        1 MOL      0.078185
      5 H2         -2.9350   -2.5000   -4.7630 hc        1 MOL      0.078185
      6 H3         -2.6920   -0.9050   -5.5140 hc        1 MOL      0.078185
      7 N1         -5.2640   -1.0510   -4.0640 n         1 MOL     -0.740322
      8 C3         -6.2810   -0.5730   -3.1810 c3        1 MOL      0.355154
      9 C4         -6.5660   -1.4510   -1.9970 c         1 MOL      0.582366
     10 O2         -6.4640   -2.6560   -2.0800 o         1 MOL     -0.539311
     11 C5         -7.4750   -0.2270   -4.0170 c3        1 MOL     -0.233826
     12 C6         -8.7580    0.1080   -3.2810 c         1 MOL      0.774114
     13 O3         -8.9060    1.1610   -2.6030 o         1 MOL     -0.731304
     14 O4         -9.6860   -0.6830   -3.4410 o         1 MOL     -0.731304
     15 H4         -5.5600   -1.5070   -4.9180 hn        1 MOL      0.317278
     16 H5         -5.9910    0.4310   -2.8520 h1        1 MOL      0.015070
     17 H6         -7.6960   -1.0630   -4.6810 hc        1 MOL     -0.001823
     18 H7         -7.0870    0.6760   -4.4940 hc        1 MOL     -0.001823
     19 N2         -7.0510   -0.8460   -0.9030 n         1 MOL     -0.604913
     20 C7         -7.2100   -1.4370    0.4370 c3        1 MOL      0.499762
     21 C8         -6.0470   -1.0660    1.3330 c         1 MOL      0.463813
     22 O5         -5.4480    0.0280    1.1690 o         1 MOL     -0.573557
     23 C9         -8.5860   -1.0420    1.0260 c3        1 MOL     -0.535945
     24 H8         -7.4630    0.0690   -1.0600 hn        1 MOL      0.245006
     25 H9         -7.1300   -2.5050    0.2910 h1        1 MOL     -0.004247
     26 H10        -8.5420    0.0170    1.2800 hc        1 MOL      0.125806
     27 H11        -9.3830   -1.1440    0.2890 hc        1 MOL      0.125806
     28 H12        -8.7410   -1.6320    1.9230 hc        1 MOL      0.125806
     29 N3         -5.6280   -2.0980    2.0920 n         1 MOL     -0.347366
     30 C10        -4.2910   -2.2690    2.6400 c3        1 MOL     -0.100513
     31 C11        -3.9800   -1.4350    3.8620 c         1 MOL      0.350151
     32 O6         -2.8080   -1.3170    4.3370 o         1 MOL     -0.535574
     33 C12        -4.0360   -3.8140    2.8490 c3        1 MOL     -0.179984
     34 C13        -4.1820   -4.6620    1.5880 c         1 MOL      0.645233
     35 O7         -5.2950   -5.1030    1.3280 o         1 MOL     -0.676015
     36 O8         -3.2270   -4.8210    0.8460 o         1 MOL     -0.676015
     37 H13        -6.2170   -2.9040    2.2130 hn        1 MOL      0.222024
     38 H14        -3.6530   -1.9330    1.8270 h1        1 MOL      0.214028
     39 H15        -4.6820   -4.1920    3.6470 hc        1 MOL      0.059180
     40 H16        -3.1060   -3.9280    3.3890 hc        1 MOL      0.059180
     41 N4         -4.9410   -0.7230    4.3940 n         1 MOL     -0.045513
     42 C14        -4.7890    0.0140    5.6660 c3        1 MOL     -0.309337
     43 C15        -4.0040    1.3290    5.5380 c         1 MOL      0.664178
     44 O9         -4.1080    2.1220    6.4780 o         1 MOL     -0.565203
     45 H17        -5.8030   -0.7900    3.8520 hn        1 MOL      0.152939
     46 H18        -4.2560   -0.5750    6.4150 h1        1 MOL      0.124286
     47 H19        -5.7950    0.2250    6.0260 h1        1 MOL      0.124286
     48 N5         -3.4530    1.6820    4.3440 n         1 MOL     -0.501213
     49 C16        -2.5260    2.8340    4.0810 c3        1 MOL      0.181733
     50 C17        -2.8760    3.4730    2.6790 c         1 MOL      0.416760
     51 O10        -3.6170    2.9780    1.8490 o         1 MOL     -0.416916
     52 C18        -1.0650    2.2690    4.1610 c3        1 MOL     -0.245436
     53 C19        -0.7410    1.7160    5.5130 c         1 MOL      0.649304
     54 N6         -0.9380    0.4590    5.7540 n         1 MOL     -0.763004
     55 O11        -0.2980    2.4260    6.4430 o         1 MOL     -0.604196
     56 H20        -3.8220    1.2080    3.5260 hn        1 MOL      0.258157
     57 H21        -2.6330    3.6130    4.8440 h1        1 MOL      0.038386
     58 H22        -0.3590    3.0570    3.9190 hc        1 MOL      0.091512
     59 H23        -0.9850    1.4820    3.4090 hc        1 MOL      0.091512
     60 H24        -1.6240   -0.0020    5.1680 hn        1 MOL      0.358964
     61 H25        -0.8180    0.2160    6.7340 hn        1 MOL      0.358964
     62 N7         -2.1120    4.5390    2.3400 n         1 MOL     -0.430766
     63 C20        -2.1960    5.2330    1.0730 c3        1 MOL     -0.002513
     64 C21        -0.8540    5.8140    0.6440 c         1 MOL      0.569526
     65 O12         0.1900    5.4130    1.1560 o         1 MOL     -0.501681
     66 H26        -1.4990    4.8320    3.0890 hn        1 MOL      0.268572
     67 H27        -2.8910    6.0610    1.1810 h1        1 MOL      0.082537
     68 H28        -2.5680    4.6500    0.2350 h1        1 MOL      0.082537
     69 N8         -0.9080    6.6620   -0.4190 n         1 MOL     -0.489282
     70 C22         0.3590    7.3230   -0.9800 c3        1 MOL     -0.254864
     71 C23         1.3220    6.4120   -1.6850 c         1 MOL      0.487883
     72 O13         2.4440    6.8680   -1.8830 o         1 MOL     -0.556292
     73 C24        -0.0470    8.4750   -1.9750 c3        1 MOL      0.430027
     74 C25        -0.7980    7.9500   -3.2340 c3        1 MOL     -0.433776
     75 O14        -0.9030    9.4160   -1.3060 oh        1 MOL     -0.638936
     76 H29        -1.8090    6.9950   -0.7070 hn        1 MOL      0.266145
     77 H30         0.9170    7.7520   -0.1500 h1        1 MOL      0.174156
     78 H31         0.8690    8.9960   -2.2600 h1        1 MOL      0.069751
     79 H32        -1.7400    8.9860   -1.1050 ho        1 MOL      0.397326
     80 H33        -0.9540    8.8050   -3.8920 hc        1 MOL      0.108393
     81 H34        -0.1790    7.2510   -3.7900 hc        1 MOL      0.108393
     82 H35        -1.7390    7.4110   -3.1460 hc        1 MOL      0.108393
     83 N9          0.8770    5.1850   -2.0340 n         1 MOL     -0.124819
     84 C26         1.7420    4.0500   -2.4440 c3        1 MOL     -0.064323
     85 C27         1.3150    2.7470   -1.8110 c         1 MOL      0.461755
     86 O15         0.1410    2.5700   -1.4460 o         1 MOL     -0.454441
     87 C28         1.8810    3.9190   -3.9690 c3        1 MOL      0.013339
     88 C29         0.7260    3.2110   -4.6920 c3        1 MOL     -0.167478
     89 C30         2.2320    5.2510   -4.5910 c3        1 MOL     -0.168905
     90 C31        -0.5040    4.0660   -4.7360 c3        1 MOL     -0.128228
     91 H36        -0.0780    5.0020   -1.7450 hn        1 MOL      0.156448
     92 H37         2.7340    4.2910   -2.0590 h1        1 MOL      0.093735
     93 H38         2.7440    3.2610   -4.1330 hc        1 MOL      0.044487
     94 H39         0.4880    2.3010   -4.1410 hc        1 MOL      0.073852
     95 H40         1.0540    2.7760   -5.6350 hc        1 MOL      0.073852
     96 H41         2.5840    5.1010   -5.6020 hc        1 MOL      0.046162
     97 H42         1.4150    5.9720   -4.5490 hc        1 MOL      0.046162
     98 H43         3.1940    5.5260   -4.1460 hc        1 MOL      0.046162
     99 H44        -0.3870    5.0670   -5.1390 hc        1 MOL      0.054181
    100 H45        -1.2670    3.5820   -5.3530 hc        1 MOL      0.054181
    101 H46        -1.1230    4.1020   -3.8280 hc        1 MOL      0.054181
    102 N10         2.2720    1.8190   -1.6270 n         1 MOL     -0.575530
    103 C32         2.0590    0.4800   -0.9940 c3        1 MOL      0.566382
    104 C33         3.2850   -0.0120   -0.1860 c         1 MOL      0.289246
    105 O16         3.5910   -1.2010   -0.1930 o         1 MOL     -0.348451
    106 C34         1.6130   -0.6440   -1.9080 c3        1 MOL     -0.344537
    107 C35         0.7910   -1.7430   -1.2400 c         1 MOL      0.707738
    108 O17         0.7800   -1.8610    0.0320 o         1 MOL     -0.700423
    109 O18         0.1500   -2.5660   -1.9050 o         1 MOL     -0.700423
    110 H47         3.1810    2.1230   -1.9500 hn        1 MOL      0.260832
    111 H48         1.3050    0.7280   -0.2450 h1        1 MOL     -0.030335
    112 H49         2.5420   -1.0760   -2.2870 hc        1 MOL      0.068387
    113 H50         0.9970   -0.2110   -2.7050 hc        1 MOL      0.068387
    114 N11         4.0270    0.9310    0.3710 n         1 MOL     -0.397207
    115 C36         5.2070    0.6700    1.1220 c3        1 MOL      0.271295
    116 C37         6.1890   -0.1170    0.1920 c         1 MOL      0.192375
    117 O19         6.4740    0.3050   -0.9280 o         1 MOL     -0.479785
    118 C38         5.6470    2.0350    1.6430 c3        1 MOL     -0.368842
    119 C39         6.6460    1.9440    2.8070 ca        1 MOL      0.149457
    120 C40         6.2430    2.0750    4.1740 ca        1 MOL     -0.196425
    121 C41         8.0130    1.6930    2.4690 ca        1 MOL     -0.196425
    122 C42         7.2670    1.8800    5.1230 ca        1 MOL     -0.089793
    123 C43         8.9480    1.3890    3.4100 ca        1 MOL     -0.089793
    124 C44         8.6480    1.6010    4.8050 ca        1 MOL     -0.158937
    125 H51         3.6130    1.8460    0.4080 hn        1 MOL      0.245162
    126 H52         4.9500    0.0210    1.9580 h1        1 MOL      0.031443
    127 H53         4.7320    2.5010    2.0000 hc        1 MOL      0.134673
    128 H54         6.0320    2.6030    0.7920 hc        1 MOL      0.134673
    129 H55         5.2140    2.2150    4.4350 ha        1 MOL      0.153276
    130 H56         8.2070    1.4520    1.4340 ha        1 MOL      0.153276
    131 H57         6.9470    2.0560    6.1400 ha        1 MOL      0.106271
    132 H58         9.8570    0.9000    3.1100 ha        1 MOL      0.106271
    133 H59         9.4770    1.4640    5.4790 ha        1 MOL      0.121449
    134 N12         6.8050   -1.1980    0.6670 n         1 MOL     -0.070559
    135 C45         7.6180   -2.0610   -0.2140 c3        1 MOL      0.168544
    136 C46         6.8540   -2.7010   -1.4400 c         1 MOL      0.156724
    137 O20         7.5460   -3.1600   -2.3790 o         1 MOL     -0.498878
    138 C47         8.1020   -3.2050    0.6760 c3        1 MOL     -0.079221
    139 C48         8.1760   -2.5950    2.0620 c3        1 MOL     -0.018144
    140 C49         7.0270   -1.6460    2.0630 c3        1 MOL      0.033805
    141 H60         8.4610   -1.4790   -0.5640 h1        1 MOL      0.035455
    142 H61         7.3230   -3.9620    0.5830 hc        1 MOL      0.044917
    143 H62         9.0990   -3.5740    0.3980 hc        1 MOL      0.044917
    144 H63         8.2390   -3.2960    2.8980 hc        1 MOL      0.018539
    145 H64         9.0480   -1.9500    2.0670 hc        1 MOL      0.018539
    146 H65         6.0850   -2.0140    2.4740 h1        1 MOL      0.026463
    147 H66         7.2830   -0.8060    2.7120 h1        1 MOL      0.026463
    148 N13         5.5190   -2.8740   -1.3960 n         1 MOL      0.011491
    149 C50         4.9030   -3.7680   -2.3940 c3        1 MOL     -0.017560
    150 C51         4.7570   -3.0880   -3.7650 c         1 MOL      0.430921
    151 O21         4.7370   -3.7870   -4.7930 o         1 MOL     -0.570912
    152 C52         3.5510   -4.1660   -1.8500 c3        1 MOL     -0.010775
    153 C53         3.6290   -5.3040   -0.8800 c3        1 MOL      0.038987
    154 C54         2.2640   -5.7450   -0.3290 c         1 MOL      0.633007
    155 O22         2.0050   -6.9630   -0.1510 o         1 MOL     -0.700974
    156 O23         1.4460   -4.8320    0.0970 o         1 MOL     -0.700974
    157 H67         4.9550   -2.5180   -0.6330 hn        1 MOL      0.076501
    158 H68         5.5480   -4.6420   -2.5230 h1        1 MOL      0.089428
    159 H69         3.0380   -4.6100   -2.7030 hc        1 MOL     -0.004889
    160 H70         2.9570   -3.3250   -1.5040 hc        1 MOL     -0.004889
    161 H71         4.3520   -5.1630   -0.0750 hc        1 MOL     -0.023803
    162 H72         4.0950   -6.1650   -1.3570 hc        1 MOL     -0.023803
    163 N14         4.6670   -1.8040   -3.9140 n         1 MOL     -0.153549
    164 C55         4.4740   -1.0650   -5.1810 c3        1 MOL     -0.203786
    165 H73         5.4460   -0.8130   -5.6050 h1        1 MOL      0.091201
    166 H74         3.9220   -1.6870   -5.8850 h1        1 MOL      0.091201
    167 H75         3.9140   -0.1490   -4.9870 h1        1 MOL      0.091201
    168 H76         4.6960   -1.3000   -3.0470 hn        1 MOL      0.197839
    169 Ca1        -1.0020   -3.9890   -0.2040 Ca        1 MOL      1.703401
    170 O24        -0.6260   -6.4250   -1.3730 oh        1 MOL     -0.811850
    171 O25        -2.4450   -4.0030   -2.3280 oh        1 MOL     -0.811850
    172 H77         0.2700   -6.7330   -1.4950 ho        1 MOL      0.391377
    173 H78        -3.3800   -4.2120   -2.4280 ho        1 MOL      0.391377
    174 H79        -1.1570   -6.9850   -1.9430 ho        1 MOL      0.391377
    175 H80        -2.0600   -4.1980   -3.1770 ho        1 MOL      0.391377
    176 O26        -0.7400   -3.0050    2.2250 oh        1 MOL     -0.811850
    177 H81        -0.4180   -3.6140    2.8880 ho        1 MOL      0.391377
    178 H82        -0.4400   -2.1450    2.5310 ho        1 MOL      0.391377
    179 O27        -2.3600   -1.4760   -0.5190 oh        1 MOL     -0.811850
    180 H83        -2.0860   -0.7630    0.0690 ho        1 MOL      0.391377
    181 H84        -2.6910   -1.0200   -1.3030 ho        1 MOL      0.391377
    182 O28        -0.4520   -6.1470    1.9000 oh        1 MOL     -0.811850
    183 H85        -0.7080   -6.8580    2.4860 ho        1 MOL      0.391377
    184 H86        -0.1420   -6.5830    1.1090 ho        1 MOL      0.391377
@<TRIPOS>BOND
     1    1    2 1   
     2    1    4 1   
     3    1    5 1   
     4    1    6 1   
     5    2    3 2   
     6    2    7 1   
     7    7    8 1   
     8    7   15 1   
     9    8    9 1   
    10    8   11 1   
    11    8   16 1   
    12    9   10 2   
    13    9   19 1   
    14   11   12 1   
    15   11   17 1   
    16   11   18 1   
    17   12   13 1   
    18   12   14 1   
    19   19   20 1   
    20   19   24 1   
    21   20   21 1   
    22   20   23 1   
    23   20   25 1   
    24   21   22 2   
    25   21   29 1   
    26   23   26 1   
    27   23   27 1   
    28   23   28 1   
    29   29   30 1   
    30   29   37 1   
    31   30   31 1   
    32   30   33 1   
    33   30   38 1   
    34   31   32 2   
    35   31   41 1   
    36   33   34 1   
    37   33   39 1   
    38   33   40 1   
    39   34   35 1   
    40   34   36 1   
    41   41   42 1   
    42   41   45 1   
    43   42   43 1   
    44   42   46 1   
    45   42   47 1   
    46   43   44 2   
    47   43   48 1   
    48   48   49 1   
    49   48   56 1   
    50   49   50 1   
    51   49   52 1   
    52   49   57 1   
    53   50   51 2   
    54   50   62 1   
    55   52   53 1   
    56   52   58 1   
    57   52   59 1   
    58   53   54 1   
    59   53   55 2   
    60   54   60 1   
    61   54   61 1   
    62   62   63 1   
    63   62   66 1   
    64   63   64 1   
    65   63   67 1   
    66   63   68 1   
    67   64   65 2   
    68   64   69 1   
    69   69   70 1   
    70   69   76 1   
    71   70   71 1   
    72   70   73 1   
    73   70   77 1   
    74   71   72 2   
    75   71   83 1   
    76   73   74 1   
    77   73   75 1   
    78   73   78 1   
    79   74   80 1   
    80   74   81 1   
    81   74   82 1   
    82   75   79 1   
    83   83   84 1   
    84   83   91 1   
    85   84   85 1   
    86   84   87 1   
    87   84   92 1   
    88   85   86 2   
    89   85  102 1   
    90   87   88 1   
    91   87   89 1   
    92   87   93 1   
    93   88   90 1   
    94   88   94 1   
    95   88   95 1   
    96   89   96 1   
    97   89   97 1   
    98   89   98 1   
    99   90   99 1   
   100   90  100 1   
   101   90  101 1   
   102  102  103 1   
   103  102  110 1   
   104  103  104 1   
   105  103  106 1   
   106  103  111 1   
   107  104  105 2   
   108  104  114 1   
   109  106  107 1   
   110  106  112 1   
   111  106  113 1   
   112  107  108 1   
   113  107  109 1   
   114  114  115 1   
   115  114  125 1   
   116  115  116 1   
   117  115  118 1   
   118  115  126 1   
   119  116  117 2   
   120  116  134 1   
   121  118  119 1   
   122  118  127 1   
   123  118  128 1   
   124  119  120 ar  
   125  119  121 ar  
   126  120  122 ar  
   127  120  129 1   
   128  121  123 ar  
   129  121  130 1   
   130  122  124 ar  
   131  122  131 1   
   132  123  124 ar  
   133  123  132 1   
   134  124  133 1   
   135  134  135 1   
   136  134  140 1   
   137  135  136 1   
   138  135  138 1   
   139  135  141 1   
   140  136  137 2   
   141  136  148 1   
   142  138  139 1   
   143  138  142 1   
   144  138  143 1   
   145  139  140 1   
   146  139  144 1   
   147  139  145 1   
   148  140  146 1   
   149  140  147 1   
   150  148  149 1   
   151  148  157 1   
   152  149  150 1   
   153  149  152 1   
   154  149  158 1   
   155  150  151 2   
   156  150  163 1   
   157  152  153 1   
   158  152  159 1   
   159  152  160 1   
   160  153  154 1   
   161  153  161 1   
   162  153  162 1   
   163  154  155 1   
   164  154  156 1   
   165  163  164 1   
   166  163  168 1   
   167  164  165 1   
   168  164  166 1   
   169  164  167 1   
   170  170  172 1   
   171  170  174 1   
   172  171  173 1   
   173  171  175 1   
   174  176  177 1   
   175  176  178 1   
   176  179  180 1   
   177  179  181 1   
   178  182  183 1   
   179  182  184 1   
@<TRIPOS>SUBSTRUCTURE
     1 MOL         1 TEMP              0 ****  ****    0 ROOT
