@<TRIPOS>MOLECULE
MOL
  179   176     1     0     0
SMALL
resp


@<TRIPOS>ATOM
      1 C1          3.6940    1.4380    6.1260 c3        1 MOL     -0.317218
      2 C2          3.3580    1.4840    4.6340 c         1 MOL      0.787528
      3 O1          4.1200    0.9140    3.8220 o         1 MOL     -0.601927
      4 H1          4.1520    2.3810    6.4230 hc        1 MOL      0.080543
      5 H2          2.7810    1.2800    6.7000 hc        1 MOL      0.080543
      6 H3          4.3890    0.6210    6.3170 hc        1 MOL      0.080543
      7 N1          2.3300    2.2240    4.2350 n         1 MOL     -0.663725
      8 C3          1.8410    2.1510    2.8760 c3        1 MOL      0.002920
      9 C4          2.2370    3.4490    2.1540 c         1 MOL      0.546645
     10 O2          1.9140    4.6030    2.5400 o         1 MOL     -0.519069
     11 C5          0.3000    2.0630    2.9140 c3        1 MOL     -0.095792
     12 C6         -0.3130    1.6820    1.5550 c         1 MOL      0.508518
     13 O3         -1.5370    1.7990    1.2390 o         1 MOL     -0.720099
     14 O4          0.4700    1.2870    0.6410 o         1 MOL     -0.720099
     15 H4          1.7700    2.7700    4.8650 hn        1 MOL      0.348543
     16 H5          2.2570    1.3130    2.3230 h1        1 MOL      0.090756
     17 H6         -0.0950    3.0180    3.2440 hc        1 MOL      0.071716
     18 H7         -0.0730    1.3230    3.6250 hc        1 MOL      0.071716
     19 N2          3.0220    3.1640    1.0800 n         1 MOL     -0.344272
     20 C7          3.6360    4.1940    0.1510 c3        1 MOL     -0.034160
     21 C8          2.5910    4.9050   -0.7190 c         1 MOL      0.496550
     22 O5          2.5610    6.1320   -0.7020 o         1 MOL     -0.537834
     23 C9          4.7850    3.6090   -0.6780 c3        1 MOL      0.070695
     24 C10         5.7730    4.5830   -1.3100 c3        1 MOL     -0.090191
     25 C11         6.5320    5.4720   -0.2860 c3        1 MOL      0.120259
     26 C12         7.7280    6.1320   -1.0780 c3        1 MOL     -0.013281
     27 N3          8.5110    7.0960   -0.3560 n4        1 MOL     -0.211610
     28 H8          3.3760    2.2280    0.9440 hn        1 MOL      0.263382
     29 H9          4.0560    4.9500    0.8160 h1        1 MOL      0.061934
     30 H10         4.3370    3.1250   -1.5570 hc        1 MOL      0.010875
     31 H11         5.4190    2.9380   -0.0990 hc        1 MOL      0.010875
     32 H12         5.1110    5.2420   -1.8750 hc        1 MOL      0.026141
     33 H13         6.4770    4.0350   -1.9450 hc        1 MOL      0.026141
     34 H14         6.8530    4.8900    0.5830 hc        1 MOL      0.005207
     35 H15         5.9040    6.2740    0.1140 hc        1 MOL      0.005207
     36 H16         7.2710    6.6610   -1.9110 hx        1 MOL      0.075372
     37 H17         8.3300    5.3290   -1.5050 hx        1 MOL      0.075372
     38 H18         9.0160    6.7100    0.4270 hn        1 MOL      0.244630
     39 H19         9.1880    7.5170   -0.9780 hn        1 MOL      0.244630
     40 H20         7.9450    7.8510    0.0180 hn        1 MOL      0.244630
     41 N4          1.7070    4.1660   -1.3630 n         1 MOL     -0.314147
     42 C13         0.5630    4.7520   -2.1110 c3        1 MOL      0.068173
     43 C14        -0.6290    5.1780   -1.1630 c         1 MOL      0.358716
     44 O6         -1.3370    6.1530   -1.4420 o         1 MOL     -0.559140
     45 C15        -0.0240    3.6990   -3.1350 c3        1 MOL     -0.495246
     46 C16        -0.4030    2.3920   -2.4690 c         1 MOL      0.742811
     47 O7         -1.5460    2.2480   -1.9750 o         1 MOL     -0.689129
     48 O8          0.4350    1.4380   -2.5160 o         1 MOL     -0.689129
     49 H21         1.6780    3.1880   -1.1220 hn        1 MOL      0.241658
     50 H22         0.9060    5.6390   -2.6340 h1        1 MOL      0.103945
     51 H23         0.8620    3.5000   -3.7440 hc        1 MOL      0.144382
     52 H24        -0.8320    4.1730   -3.6900 hc        1 MOL      0.144382
     53 N5         -0.7870    4.6710    0.0440 n         1 MOL      0.063006
     54 C17        -1.8590    5.0730    0.9480 c3        1 MOL     -0.203301
     55 C18        -3.2960    4.7000    0.5610 c         1 MOL      0.599507
     56 O9         -4.2310    5.0470    1.3010 o         1 MOL     -0.591164
     57 H25        -0.0740    4.0270    0.3670 hn        1 MOL      0.069938
     58 H26        -1.8540    6.1330    1.2030 h1        1 MOL      0.094816
     59 H27        -1.6210    4.5990    1.8980 h1        1 MOL      0.094816
     60 N6         -3.4350    4.0560   -0.5560 n         1 MOL     -0.289819
     61 C19        -4.7140    3.6430   -1.2010 c3        1 MOL     -0.054132
     62 C20        -5.0520    2.2220   -0.9560 c         1 MOL      0.572891
     63 O10        -4.2030    1.2790   -1.1060 o         1 MOL     -0.584311
     64 C21        -4.6290    3.9640   -2.7080 c3        1 MOL     -0.058190
     65 C22        -6.0050    3.7610   -3.3990 c         1 MOL      0.594731
     66 N7         -6.8890    4.6300   -3.1300 n         1 MOL     -0.716272
     67 O11        -6.2250    2.8460   -4.1910 o         1 MOL     -0.580748
     68 H28        -2.6310    3.7120   -1.0680 hn        1 MOL      0.268082
     69 H29        -5.5720    4.1870   -0.8160 h1        1 MOL      0.012475
     70 H30        -3.9110    3.2150   -3.0450 hc        1 MOL      0.049749
     71 H31        -4.2270    4.9200   -3.0260 hc        1 MOL      0.049749
     72 H32        -6.7290    5.4300   -2.5270 hn        1 MOL      0.348530
     73 H33        -7.8120    4.4360   -3.4890 hn        1 MOL      0.348530
     74 N8         -6.3840    1.9970   -0.8190 n         1 MOL     -0.281268
     75 C23        -7.1070    0.7470   -0.7920 c3        1 MOL     -0.246089
     76 C24        -6.4800   -0.2140    0.2500 c         1 MOL      0.575928
     77 O12        -6.4830    0.0230    1.4390 o         1 MOL     -0.501987
     78 H34        -7.0160    2.7860   -0.8600 hn        1 MOL      0.269571
     79 H35        -7.0510    0.1800   -1.7170 h1        1 MOL      0.119121
     80 H36        -8.1020    1.0270   -0.4600 h1        1 MOL      0.119121
     81 N9         -6.0380   -1.3920   -0.1800 n         1 MOL     -0.516184
     82 C25        -5.3790   -2.4110    0.5930 c3        1 MOL      0.437903
     83 C26        -4.0000   -1.9180    1.1910 c         1 MOL      0.250858
     84 O13        -3.5300   -0.7880    0.9150 o         1 MOL     -0.382025
     85 C27        -5.2270   -3.7760   -0.0980 c3        1 MOL     -0.237281
     86 C28        -6.5690   -4.3210   -0.5860 ca        1 MOL      0.132914
     87 C29        -7.4950   -4.7930    0.3590 ca        1 MOL     -0.217695
     88 C30        -6.8800   -4.1850   -1.9470 ca        1 MOL     -0.217695
     89 C31        -8.7960   -5.0450    0.0160 ca        1 MOL     -0.206215
     90 C32        -8.2000   -4.4770   -2.2920 ca        1 MOL     -0.206215
     91 C33        -9.1980   -4.9070   -1.3290 ca        1 MOL      0.271185
     92 O14       -10.5160   -5.0610   -1.6970 oh        1 MOL     -0.429954
     93 H37        -6.0810   -1.6030   -1.1630 hn        1 MOL      0.247276
     94 H38        -6.0980   -2.6740    1.3770 h1        1 MOL      0.014779
     95 H39        -4.8600   -4.5050    0.6310 hc        1 MOL      0.045145
     96 H40        -4.5460   -3.7090   -0.9430 hc        1 MOL      0.045145
     97 H41        -7.2030   -4.9460    1.3930 ha        1 MOL      0.152362
     98 H42        -6.1330   -3.7740   -2.6140 ha        1 MOL      0.152362
     99 H43        -9.5510   -5.2830    0.7480 ha        1 MOL      0.149554
    100 H44        -8.5390   -4.2640   -3.3010 ha        1 MOL      0.149554
    101 H45       -10.6030   -4.8010   -2.6190 ho        1 MOL      0.335180
    102 N10        -3.4230   -2.6500    2.1600 n         1 MOL     -0.581956
    103 C34        -2.3330   -2.3600    3.1370 c3        1 MOL      0.401139
    104 C35        -0.9470   -2.0060    2.4350 c         1 MOL      0.412342
    105 O15        -0.9030   -1.3130    1.4160 o         1 MOL     -0.495368
    106 C36        -2.7280   -1.2880    4.1890 c3        1 MOL      0.128837
    107 C37        -1.8010   -1.3480    5.4450 c3        1 MOL     -0.201154
    108 C38        -4.2250   -1.3880    4.5460 c3        1 MOL      0.020510
    109 C39        -2.1720   -0.4000    6.4960 c3        1 MOL     -0.134556
    110 H46        -3.9760   -3.4580    2.4010 hn        1 MOL      0.281840
    111 H47        -2.1810   -3.2620    3.7260 h1        1 MOL     -0.052371
    112 H48        -2.5630   -0.3390    3.6850 hc        1 MOL      0.015219
    113 H49        -0.7720   -1.0240    5.2500 hc        1 MOL      0.046149
    114 H50        -1.6270   -2.3570    5.8210 hc        1 MOL      0.046149
    115 H51        -4.3790   -2.3690    5.0030 hc        1 MOL     -0.003654
    116 H52        -4.5150   -0.6430    5.2800 hc        1 MOL     -0.003654
    117 H53        -4.8900   -1.3190    3.6870 hc        1 MOL     -0.003654
    118 H54        -3.1890   -0.4870    6.8640 hc        1 MOL      0.052757
    119 H55        -1.4770   -0.4620    7.3210 hc        1 MOL      0.052757
    120 H56        -2.0260    0.6320    6.1600 hc        1 MOL      0.052757
    121 N11         0.1690   -2.5180    2.8810 n         1 MOL     -0.627471
    122 C40         1.4690   -1.9250    2.6860 c3        1 MOL      0.070248
    123 C41         2.2260   -2.1630    1.3570 c         1 MOL      0.371268
    124 O16         3.3640   -1.7090    1.1000 o         1 MOL     -0.473613
    125 C42         2.3680   -2.3920    3.7690 c3        1 MOL      0.284487
    126 O17         1.7490   -2.2310    5.0640 oh        1 MOL     -0.624441
    127 H57         0.0850   -3.0980    3.7070 hn        1 MOL      0.289870
    128 H58         1.2860   -0.8630    2.8610 h1        1 MOL      0.198171
    129 H59         3.2130   -1.7110    3.6440 h1        1 MOL      0.025737
    130 H60         2.7060   -3.4200    3.6330 h1        1 MOL      0.025737
    131 H61         1.2650   -3.0310    5.2850 ho        1 MOL      0.384775
    132 N12         1.5650   -2.9550    0.5040 n         1 MOL     -0.334682
    133 C43         1.8710   -3.1510   -0.9060 c3        1 MOL     -0.142840
    134 C44         1.6000   -1.9250   -1.8810 c         1 MOL      0.778805
    135 O18         0.5020   -1.3810   -1.8130 o         1 MOL     -0.574951
    136 C45         1.2540   -4.4860   -1.3180 c3        1 MOL     -0.207076
    137 H62         0.7110   -3.3350    0.8860 hn        1 MOL      0.302321
    138 H63         2.9470   -3.2940   -0.8340 h1        1 MOL      0.165849
    139 H64         1.6200   -4.7740   -2.3100 hc        1 MOL      0.064080
    140 H65         1.4610   -5.2550   -0.5770 hc        1 MOL      0.064080
    141 H66         0.1690   -4.4010   -1.2530 hc        1 MOL      0.064080
    142 N13         2.4940   -1.5720   -2.8160 n         1 MOL     -0.736675
    143 C46         3.9380   -1.9320   -2.7850 c3        1 MOL      0.327004
    144 C47         4.1840   -3.3960   -3.2710 c         1 MOL      0.513802
    145 O19         3.6370   -3.9240   -4.2310 o         1 MOL     -0.569667
    146 C48         4.7930   -1.0200   -3.6790 c3        1 MOL     -0.369237
    147 H67         2.1770   -0.9030   -3.5110 hn        1 MOL      0.390535
    148 H68         4.3230   -1.8510   -1.7660 h1        1 MOL      0.059610
    149 H69         5.0450   -0.1010   -3.1480 hc        1 MOL      0.116206
    150 H70         5.7590   -1.4490   -3.9340 hc        1 MOL      0.116206
    151 H71         4.3320   -0.8610   -4.6530 hc        1 MOL      0.116206
    152 N14         5.1240   -4.2140   -2.7960 n         1 MOL     -0.524488
    153 C49         5.9800   -4.0610   -1.5710 c3        1 MOL     -0.105839
    154 C50         5.8370   -5.3260   -0.7040 c         1 MOL      0.519965
    155 O20         5.6510   -5.1670    0.4750 o         1 MOL     -0.515167
    156 C51         7.4210   -3.8150   -1.9490 c3        1 MOL      0.193426
    157 C52         8.2680   -3.4950   -0.7410 c3        1 MOL     -0.388393
    158 C53         9.7460   -3.2660   -1.1890 c         1 MOL      0.710535
    159 O21        10.4170   -4.1910   -1.6860 o         1 MOL     -0.662995
    160 O22        10.2810   -2.1400   -0.8740 o         1 MOL     -0.662995
    161 H72         5.2320   -5.0530   -3.3370 hn        1 MOL      0.299108
    162 H73         5.5430   -3.3020   -0.9330 h1        1 MOL      0.080823
    163 H74         7.5520   -3.1190   -2.7780 hc        1 MOL     -0.024971
    164 H75         7.7120   -4.7750   -2.3750 hc        1 MOL     -0.024971
    165 H76         8.2050   -4.2630    0.0260 hc        1 MOL      0.102343
    166 H77         7.9170   -2.5160   -0.4160 hc        1 MOL      0.102343
    167 N15         5.9540   -6.5440   -1.2670 n         1 MOL     -0.343370
    168 C54         5.7060   -7.7710   -0.5610 c3        1 MOL     -0.026469
    169 H78         4.9730   -8.3630   -1.1090 h1        1 MOL      0.052290
    170 H79         6.6350   -8.3340   -0.4740 h1        1 MOL      0.052290
    171 H80         5.3210   -7.5470    0.4330 h1        1 MOL      0.052290
    172 H81         6.2650   -6.6650   -2.2170 hn        1 MOL      0.296591
    173 Ca1        -1.6130    0.0290   -0.7440 Ca        1 MOL      1.762186
    174 O23        -2.4610   -0.7070   -3.2670 oh        1 MOL     -0.846581
    175 H82        -3.4110   -0.7880   -3.2060 ho        1 MOL      0.423002
    176 H83        -2.2980   -0.4360   -4.1690 ho        1 MOL      0.423002
    177 O24        -1.8070   -2.7410   -0.8900 oh        1 MOL     -0.846581
    178 H84        -1.2460   -3.4530   -0.5710 ho        1 MOL      0.423002
    179 H85        -1.9770   -2.9810   -1.8040 ho        1 MOL      0.423002
@<TRIPOS>BOND
     1    1    2 1   
     2    1    4 1   
     3    1    5 1   
     4    1    6 1   
     5    2    3 2   
     6    2    7 1   
     7    7    8 1   
     8    7   15 1   
     9    8    9 1   
    10    8   11 1   
    11    8   16 1   
    12    9   10 2   
    13    9   19 1   
    14   11   12 1   
    15   11   17 1   
    16   11   18 1   
    17   12   13 1   
    18   12   14 1   
    19   19   20 1   
    20   19   28 1   
    21   20   21 1   
    22   20   23 1   
    23   20   29 1   
    24   21   22 2   
    25   21   41 1   
    26   23   24 1   
    27   23   30 1   
    28   23   31 1   
    29   24   25 1   
    30   24   32 1   
    31   24   33 1   
    32   25   26 1   
    33   25   34 1   
    34   25   35 1   
    35   26   27 1   
    36   26   36 1   
    37   26   37 1   
    38   27   38 1   
    39   27   39 1   
    40   27   40 1   
    41   41   42 1   
    42   41   49 1   
    43   42   43 1   
    44   42   45 1   
    45   42   50 1   
    46   43   44 2   
    47   43   53 1   
    48   45   46 1   
    49   45   51 1   
    50   45   52 1   
    51   46   47 1   
    52   46   48 1   
    53   53   54 1   
    54   53   57 1   
    55   54   55 1   
    56   54   58 1   
    57   54   59 1   
    58   55   56 2   
    59   55   60 1   
    60   60   61 1   
    61   60   68 1   
    62   61   62 1   
    63   61   64 1   
    64   61   69 1   
    65   62   63 2   
    66   62   74 1   
    67   64   65 1   
    68   64   70 1   
    69   64   71 1   
    70   65   66 1   
    71   65   67 2   
    72   66   72 1   
    73   66   73 1   
    74   74   75 1   
    75   74   78 1   
    76   75   76 1   
    77   75   79 1   
    78   75   80 1   
    79   76   77 2   
    80   76   81 1   
    81   81   82 1   
    82   81   93 1   
    83   82   83 1   
    84   82   85 1   
    85   82   94 1   
    86   83   84 2   
    87   83  102 1   
    88   85   86 1   
    89   85   95 1   
    90   85   96 1   
    91   86   87 ar  
    92   86   88 ar  
    93   87   89 ar  
    94   87   97 1   
    95   88   90 ar  
    96   88   98 1   
    97   89   91 ar  
    98   89   99 1   
    99   90   91 ar  
   100   90  100 1   
   101   91   92 1   
   102   92  101 1   
   103  102  103 1   
   104  102  110 1   
   105  103  104 1   
   106  103  106 1   
   107  103  111 1   
   108  104  105 2   
   109  104  121 1   
   110  106  107 1   
   111  106  108 1   
   112  106  112 1   
   113  107  109 1   
   114  107  113 1   
   115  107  114 1   
   116  108  115 1   
   117  108  116 1   
   118  108  117 1   
   119  109  118 1   
   120  109  119 1   
   121  109  120 1   
   122  121  122 1   
   123  121  127 1   
   124  122  123 1   
   125  122  125 1   
   126  122  128 1   
   127  123  124 2   
   128  123  132 1   
   129  125  126 1   
   130  125  129 1   
   131  125  130 1   
   132  126  131 1   
   133  132  133 1   
   134  132  137 1   
   135  133  134 1   
   136  133  136 1   
   137  133  138 1   
   138  134  135 2   
   139  134  142 1   
   140  136  139 1   
   141  136  140 1   
   142  136  141 1   
   143  142  143 1   
   144  142  147 1   
   145  143  144 1   
   146  143  146 1   
   147  143  148 1   
   148  144  145 2   
   149  144  152 1   
   150  146  149 1   
   151  146  150 1   
   152  146  151 1   
   153  152  153 1   
   154  152  161 1   
   155  153  154 1   
   156  153  156 1   
   157  153  162 1   
   158  154  155 2   
   159  154  167 1   
   160  156  157 1   
   161  156  163 1   
   162  156  164 1   
   163  157  158 1   
   164  157  165 1   
   165  157  166 1   
   166  158  159 1   
   167  158  160 1   
   168  167  168 1   
   169  167  172 1   
   170  168  169 1   
   171  168  170 1   
   172  168  171 1   
   173  174  175 1   
   174  174  176 1   
   175  177  178 1   
   176  177  179 1   
@<TRIPOS>SUBSTRUCTURE
     1 MOL         1 TEMP              0 ****  ****    0 ROOT
