@<TRIPOS>MOLECULE
MOL
  182   178     1     0     0
SMALL
resp


@<TRIPOS>ATOM
      1 C1          1.1640   -4.6000    6.1200 c3        1 MOL     -0.397884
      2 C2          1.2560   -4.3130    4.5730 c         1 MOL      0.753494
      3 O1          0.3530   -4.6390    3.7620 o         1 MOL     -0.656323
      4 H1          0.1170   -4.6490    6.4180 hc        1 MOL      0.110931
      5 H2          1.6510   -5.5490    6.3430 hc        1 MOL      0.110931
      6 H3          1.6600   -3.7990    6.6690 hc        1 MOL      0.110931
      7 N1          2.2220   -3.6480    4.1510 n         1 MOL     -0.571767
      8 C3          2.5240   -3.3360    2.7430 c3        1 MOL     -0.131517
      9 C4          2.8460   -4.5700    1.8070 c         1 MOL      0.676689
     10 O2          3.7550   -5.4350    2.0800 o         1 MOL     -0.533299
     11 C5          3.7310   -2.3570    2.6500 c3        1 MOL      0.174721
     12 C6          3.6520   -1.5980    1.4060 c         1 MOL      0.231370
     13 O3          4.2540   -0.5070    1.2980 o         1 MOL     -0.558529
     14 O4          3.2230   -2.1280    0.3460 o         1 MOL     -0.558529
     15 H4          2.8560   -3.3820    4.8980 hn        1 MOL      0.317997
     16 H5          1.6540   -2.8130    2.3450 h1        1 MOL      0.055728
     17 H6          4.6040   -3.0100    2.7260 hc        1 MOL      0.032517
     18 H7          3.7270   -1.6670    3.4850 hc        1 MOL      0.032517
     19 N2          2.1660   -4.5400    0.6140 n         1 MOL     -0.430945
     20 C7          2.2690   -5.4080   -0.5590 c3        1 MOL     -0.131979
     21 C8          3.6410   -5.4520   -1.2690 c         1 MOL      0.573625
     22 O5          4.0010   -6.3990   -1.8960 o         1 MOL     -0.576965
     23 C9          1.2220   -4.8820   -1.5980 c3        1 MOL     -0.025577
     24 C10        -0.1950   -4.9040   -1.0660 c3        1 MOL      0.222267
     25 C11        -1.2050   -4.3510   -2.0070 c3        1 MOL     -0.021094
     26 C12        -2.0330   -5.4550   -2.6770 c3        1 MOL      0.177815
     27 N3         -1.3450   -6.1630   -3.8120 n4        1 MOL     -0.358837
     28 H8          1.5710   -3.7270    0.6320 hn        1 MOL      0.289998
     29 H9          1.9710   -6.4300   -0.3070 h1        1 MOL      0.114696
     30 H10         1.3580   -5.5110   -2.4810 hc        1 MOL     -0.004552
     31 H11         1.4390   -3.8540   -1.8550 hc        1 MOL     -0.004552
     32 H12        -0.2610   -4.2890   -0.1680 hc        1 MOL     -0.041618
     33 H13        -0.4110   -5.9320   -0.7890 hc        1 MOL     -0.041618
     34 H14        -0.7770   -3.7480   -2.7990 hc        1 MOL     -0.001319
     35 H15        -1.9170   -3.9110   -1.3130 hc        1 MOL     -0.001319
     36 H16        -2.9380   -4.9900   -3.0830 hx        1 MOL      0.032751
     37 H17        -2.3970   -6.2020   -1.9790 hx        1 MOL      0.032751
     38 H18        -1.1370   -5.5640   -4.5920 hn        1 MOL      0.264649
     39 H19        -0.4750   -6.5250   -3.4430 hn        1 MOL      0.264649
     40 H20        -1.9470   -6.9220   -4.1020 hn        1 MOL      0.264649
     41 N4          4.3170   -4.3460   -1.3320 n         1 MOL     -0.251595
     42 C13         5.5450   -3.9900   -2.0610 c3        1 MOL      0.234223
     43 C14         6.7220   -3.3620   -1.2130 c         1 MOL      0.233562
     44 O6          7.9240   -3.6060   -1.4940 o         1 MOL     -0.494499
     45 C15         5.2190   -3.0030   -3.1490 c3        1 MOL     -0.495687
     46 C16         4.2620   -1.8240   -2.8870 c         1 MOL      0.911760
     47 O7          4.4720   -1.0880   -1.8830 o         1 MOL     -0.749438
     48 O8          3.2690   -1.6530   -3.6100 o         1 MOL     -0.749438
     49 H21         3.8010   -3.5990   -0.8970 hn        1 MOL      0.092747
     50 H22         5.9100   -4.9570   -2.3980 h1        1 MOL      0.094431
     51 H23         4.8670   -3.6290   -3.9730 hc        1 MOL      0.112364
     52 H24         6.0840   -2.6620   -3.7070 hc        1 MOL      0.112364
     53 N5          6.3530   -2.6460   -0.1160 n         1 MOL      0.000445
     54 C17         7.2070   -1.8250    0.8110 c3        1 MOL     -0.254529
     55 C18         7.3820   -0.3630    0.3480 c         1 MOL      0.715673
     56 O9          7.9880    0.3550    1.0990 o         1 MOL     -0.594981
     57 H25         5.4110   -2.6210    0.2380 hn        1 MOL      0.069200
     58 H26         8.2350   -2.1770    0.7900 h1        1 MOL      0.118785
     59 H27         6.8300   -1.8810    1.8340 h1        1 MOL      0.118785
     60 N6          6.9480    0.0200   -0.8470 n         1 MOL     -0.440586
     61 C19         7.0290    1.3890   -1.4450 c3        1 MOL      0.013233
     62 C20         5.9560    2.3450   -1.0170 c         1 MOL      0.589496
     63 O10         4.7660    1.9770   -0.8310 o         1 MOL     -0.539011
     64 C21         7.2090    1.1880   -2.9690 c3        1 MOL     -0.221933
     65 C22         7.3960    2.4200   -3.8140 c         1 MOL      0.658536
     66 N7          8.6340    2.6450   -4.2240 n         1 MOL     -0.798940
     67 O11         6.5230    3.2320   -3.9190 o         1 MOL     -0.573158
     68 H28         6.3240   -0.5870   -1.3650 hn        1 MOL      0.267515
     69 H29         7.9890    1.8430   -1.1970 h1        1 MOL      0.054685
     70 H30         6.3450    0.6980   -3.4330 hc        1 MOL      0.098017
     71 H31         8.0470    0.5080   -3.1010 hc        1 MOL      0.098017
     72 H32         9.4120    2.0690   -3.9510 hn        1 MOL      0.370222
     73 H33         8.7210    3.6010   -4.5540 hn        1 MOL      0.370222
     74 N8          6.2100    3.5900   -0.7340 n         1 MOL     -0.389718
     75 C23         5.1270    4.6280   -0.7470 c3        1 MOL     -0.061380
     76 C24         4.1840    4.5420    0.4290 c         1 MOL      0.505797
     77 O12         4.6420    4.3870    1.5940 o         1 MOL     -0.478306
     78 H34         7.1790    3.8130   -0.9090 hn        1 MOL      0.279665
     79 H35         4.5640    4.6790   -1.6860 h1        1 MOL      0.085535
     80 H36         5.6660    5.5730   -0.7220 h1        1 MOL      0.085535
     81 N9          2.8470    4.6250    0.1250 n         1 MOL     -0.453344
     82 C25         1.8330    4.4940    1.1440 c3        1 MOL     -0.094414
     83 C26         1.5900    2.9870    1.5400 c         1 MOL      0.788416
     84 O13         2.1460    2.0770    0.9720 o         1 MOL     -0.511876
     85 C27         0.6380    5.1900    0.4750 c3        1 MOL     -0.088096
     86 C28         0.6710    6.7820    0.3520 ca        1 MOL      0.009372
     87 C29         1.2140    7.4740    1.4470 ca        1 MOL     -0.140700
     88 C30         0.3630    7.4170   -0.8890 ca        1 MOL     -0.140700
     89 C31         1.4150    8.8730    1.3230 ca        1 MOL     -0.249014
     90 C32         0.4760    8.8120   -0.9580 ca        1 MOL     -0.249014
     91 C33         0.8650    9.5450    0.1960 ca        1 MOL      0.319070
     92 O14         0.8720   10.8880    0.0930 oh        1 MOL     -0.466328
     93 H37         2.6470    4.9720   -0.8030 hn        1 MOL      0.281968
     94 H38         2.2020    5.0480    1.9980 h1        1 MOL      0.115434
     95 H39        -0.2150    4.9680    1.1040 hc        1 MOL      0.037243
     96 H40         0.3480    4.6600   -0.4330 hc        1 MOL      0.037243
     97 H41         1.5300    6.9490    2.3370 ha        1 MOL      0.133253
     98 H42         0.0530    6.8780   -1.7760 ha        1 MOL      0.133253
     99 H43         2.0350    9.4000    2.0320 ha        1 MOL      0.160601
    100 H44         0.1460    9.2980   -1.8670 ha        1 MOL      0.160601
    101 H45         1.0510   11.3150    0.9370 ho        1 MOL      0.370239
    102 N10         0.6660    2.7690    2.5030 n         1 MOL     -0.785459
    103 C34         0.3090    1.4200    2.9870 c3        1 MOL     -0.034628
    104 C35        -0.1190    0.3590    1.9040 c         1 MOL      0.885739
    105 O15         0.7870   -0.2850    1.3170 o         1 MOL     -0.690659
    106 C36         1.3530    0.8340    3.8660 c3        1 MOL      0.260482
    107 C37         0.9280   -0.4000    4.6040 c3        1 MOL     -0.117397
    108 C38         1.9360    1.8140    4.9500 c3        1 MOL     -0.379736
    109 C39        -0.3000   -0.4170    5.6260 c3        1 MOL     -0.274638
    110 H46         0.2140    3.5410    2.9640 hn        1 MOL      0.395631
    111 H47        -0.5170    1.6970    3.6470 h1        1 MOL      0.083980
    112 H48         2.1460    0.5290    3.1870 hc        1 MOL     -0.000728
    113 H49         1.7540   -0.7400    5.2360 hc        1 MOL      0.070059
    114 H50         0.7600   -1.2200    3.9080 hc        1 MOL      0.070059
    115 H51         1.9920    2.7630    4.4310 hc        1 MOL      0.104246
    116 H52         1.2850    1.8380    5.8280 hc        1 MOL      0.104246
    117 H53         2.9160    1.5550    5.3730 hc        1 MOL      0.104246
    118 H54        -0.1570    0.1530    6.5430 hc        1 MOL      0.065245
    119 H55        -1.1880   -0.1530    5.0570 hc        1 MOL      0.065245
    120 H56        -0.4180   -1.4710    5.8870 hc        1 MOL      0.065245
    121 N11        -1.4200   -0.0120    1.8960 n         1 MOL     -0.786091
    122 C40        -1.9500   -1.3270    1.4380 c3        1 MOL      0.355729
    123 C41        -3.2960   -1.2420    0.6340 c         1 MOL      0.508955
    124 O16        -3.5070   -2.0980   -0.2500 o         1 MOL     -0.555801
    125 C42        -2.1110   -2.2900    2.5940 c3        1 MOL      0.161730
    126 O17        -3.1340   -1.7890    3.4070 oh        1 MOL     -0.644338
    127 H57        -2.0090    0.5400    2.5040 hn        1 MOL      0.323168
    128 H58        -1.2490   -1.8060    0.7640 h1        1 MOL      0.007032
    129 H59        -1.2320   -2.3020    3.2350 h1        1 MOL      0.046232
    130 H60        -2.3010   -3.3190    2.2790 h1        1 MOL      0.046232
    131 H61        -3.0000   -2.1710    4.2780 ho        1 MOL      0.422223
    132 N12        -4.1960   -0.3180    0.9720 n         1 MOL     -0.564690
    133 C43        -5.4920   -0.1760    0.4460 c3        1 MOL      0.289219
    134 C44        -5.4440    0.6750   -0.8040 c         1 MOL      0.599325
    135 O18        -4.5280    1.4630   -1.0230 o         1 MOL     -0.580080
    136 C45        -6.3560    0.4940    1.5410 c3        1 MOL     -0.336427
    137 H62        -3.9980    0.2790    1.7650 hn        1 MOL      0.316519
    138 H63        -5.9620   -1.1350    0.2370 h1        1 MOL      0.077299
    139 H64        -7.3910    0.5970    1.2300 hc        1 MOL      0.100609
    140 H65        -6.3390   -0.1400    2.4280 hc        1 MOL      0.100609
    141 H66        -5.9480    1.4980    1.6530 hc        1 MOL      0.100609
    142 N13        -6.4150    0.6030   -1.7110 n         1 MOL     -0.641619
    143 C46        -7.6600   -0.1720   -1.6440 c3        1 MOL      0.397742
    144 C47        -8.7740    0.5490   -2.4970 c         1 MOL      0.371774
    145 O19        -8.5770    1.0980   -3.5770 o         1 MOL     -0.524285
    146 C48        -7.3390   -1.5160   -2.2810 c3        1 MOL     -0.351787
    147 H67        -6.1710    1.0790   -2.5730 hn        1 MOL      0.326262
    148 H68        -7.9360   -0.2440   -0.5970 h1        1 MOL     -0.044373
    149 H69        -6.9400   -1.3120   -3.2740 hc        1 MOL      0.097556
    150 H70        -6.5990   -2.0600   -1.6850 hc        1 MOL      0.097556
    151 H71        -8.3090   -2.0000   -2.3280 hc        1 MOL      0.097556
    152 N14       -10.0360    0.5260   -2.0750 n         1 MOL     -0.215777
    153 C49       -10.6860    0.0180   -0.8880 c3        1 MOL     -0.392379
    154 C50       -10.3490    0.7540    0.3990 c         1 MOL      0.532800
    155 O20       -10.1710    0.1290    1.4670 o         1 MOL     -0.516988
    156 C51       -12.2180    0.0160   -1.3320 c3        1 MOL      0.202283
    157 C52       -13.1950   -0.7500   -0.2980 c3        1 MOL     -0.418604
    158 C53       -14.5320   -0.9160   -0.9840 c         1 MOL      0.708885
    159 O21       -15.3130    0.0610   -1.0940 o         1 MOL     -0.651486
    160 O22       -14.7740   -1.9410   -1.6770 o         1 MOL     -0.651486
    161 H72       -10.6780    0.9430   -2.7370 hn        1 MOL      0.234995
    162 H73       -10.2550   -0.9740   -0.7480 h1        1 MOL      0.159056
    163 H74       -12.2960   -0.4390   -2.3210 hc        1 MOL      0.031772
    164 H75       -12.5660    1.0430   -1.4760 hc        1 MOL      0.031772
    165 H76       -13.2050   -0.2600    0.6770 hc        1 MOL      0.103787
    166 H77       -12.8590   -1.7560   -0.0430 hc        1 MOL      0.103787
    167 N15       -10.1270    2.0320    0.2730 n         1 MOL     -0.300605
    168 C54        -9.3280    2.8070    1.1830 c3        1 MOL     -0.056069
    169 H78        -8.4200    3.1360    0.6780 h1        1 MOL      0.057401
    170 H79        -9.8950    3.6770    1.5150 h1        1 MOL      0.057401
    171 H80        -9.0620    2.1960    2.0450 h1        1 MOL      0.057401
    172 H81       -10.1860    2.4990   -0.6130 hn        1 MOL      0.263833
    173 Ca1         2.4610    0.1430   -0.8150 Ca        1 MOL      1.816258
    174 O23         0.6460    1.9740   -1.2420 oh        1 MOL     -0.886705
    175 H82        -0.3130    1.9510   -1.2970 ho        1 MOL      0.424696
    176 H83         0.8940    2.7000   -1.8230 ho        1 MOL      0.424696
    177 O24         2.7710    1.3880   -3.2100 oh        1 MOL     -0.886705
    178 H84         2.8110    0.9360   -4.0460 ho        1 MOL      0.424696
    179 H85         2.4480    2.2630   -3.4170 ho        1 MOL      0.424696
    180 O25         0.9360   -1.1910   -2.6590 oh        1 MOL     -0.886705
    181 H86         0.2090   -1.0390   -3.2570 ho        1 MOL      0.424696
    182 H87         1.5530   -1.7150   -3.1580 ho        1 MOL      0.424696
@<TRIPOS>BOND
     1    1    2 1   
     2    1    4 1   
     3    1    5 1   
     4    1    6 1   
     5    2    3 2   
     6    2    7 1   
     7    7    8 1   
     8    7   15 1   
     9    8    9 1   
    10    8   11 1   
    11    8   16 1   
    12    9   10 2   
    13    9   19 1   
    14   11   12 1   
    15   11   17 1   
    16   11   18 1   
    17   12   13 1   
    18   12   14 1   
    19   19   20 1   
    20   19   28 1   
    21   20   21 1   
    22   20   23 1   
    23   20   29 1   
    24   21   22 2   
    25   21   41 1   
    26   23   24 1   
    27   23   30 1   
    28   23   31 1   
    29   24   25 1   
    30   24   32 1   
    31   24   33 1   
    32   25   26 1   
    33   25   34 1   
    34   25   35 1   
    35   26   27 1   
    36   26   36 1   
    37   26   37 1   
    38   27   38 1   
    39   27   39 1   
    40   27   40 1   
    41   41   42 1   
    42   41   49 1   
    43   42   43 1   
    44   42   45 1   
    45   42   50 1   
    46   43   44 2   
    47   43   53 1   
    48   45   46 1   
    49   45   51 1   
    50   45   52 1   
    51   46   47 1   
    52   46   48 1   
    53   53   54 1   
    54   53   57 1   
    55   54   55 1   
    56   54   58 1   
    57   54   59 1   
    58   55   56 2   
    59   55   60 1   
    60   60   61 1   
    61   60   68 1   
    62   61   62 1   
    63   61   64 1   
    64   61   69 1   
    65   62   63 2   
    66   62   74 1   
    67   64   65 1   
    68   64   70 1   
    69   64   71 1   
    70   65   66 1   
    71   65   67 2   
    72   66   72 1   
    73   66   73 1   
    74   74   75 1   
    75   74   78 1   
    76   75   76 1   
    77   75   79 1   
    78   75   80 1   
    79   76   77 2   
    80   76   81 1   
    81   81   82 1   
    82   81   93 1   
    83   82   83 1   
    84   82   85 1   
    85   82   94 1   
    86   83   84 2   
    87   83  102 1   
    88   85   86 1   
    89   85   95 1   
    90   85   96 1   
    91   86   87 ar  
    92   86   88 ar  
    93   87   89 ar  
    94   87   97 1   
    95   88   90 ar  
    96   88   98 1   
    97   89   91 ar  
    98   89   99 1   
    99   90   91 ar  
   100   90  100 1   
   101   91   92 1   
   102   92  101 1   
   103  102  103 1   
   104  102  110 1   
   105  103  104 1   
   106  103  106 1   
   107  103  111 1   
   108  104  105 2   
   109  104  121 1   
   110  106  107 1   
   111  106  108 1   
   112  106  112 1   
   113  107  109 1   
   114  107  113 1   
   115  107  114 1   
   116  108  115 1   
   117  108  116 1   
   118  108  117 1   
   119  109  118 1   
   120  109  119 1   
   121  109  120 1   
   122  121  122 1   
   123  121  127 1   
   124  122  123 1   
   125  122  125 1   
   126  122  128 1   
   127  123  124 2   
   128  123  132 1   
   129  125  126 1   
   130  125  129 1   
   131  125  130 1   
   132  126  131 1   
   133  132  133 1   
   134  132  137 1   
   135  133  134 1   
   136  133  136 1   
   137  133  138 1   
   138  134  135 2   
   139  134  142 1   
   140  136  139 1   
   141  136  140 1   
   142  136  141 1   
   143  142  143 1   
   144  142  147 1   
   145  143  144 1   
   146  143  146 1   
   147  143  148 1   
   148  144  145 2   
   149  144  152 1   
   150  146  149 1   
   151  146  150 1   
   152  146  151 1   
   153  152  153 1   
   154  152  161 1   
   155  153  154 1   
   156  153  156 1   
   157  153  162 1   
   158  154  155 2   
   159  154  167 1   
   160  156  157 1   
   161  156  163 1   
   162  156  164 1   
   163  157  158 1   
   164  157  165 1   
   165  157  166 1   
   166  158  159 1   
   167  158  160 1   
   168  167  168 1   
   169  167  172 1   
   170  168  169 1   
   171  168  170 1   
   172  168  171 1   
   173  174  175 1   
   174  174  176 1   
   175  177  178 1   
   176  177  179 1   
   177  180  181 1   
   178  180  182 1   
@<TRIPOS>SUBSTRUCTURE
     1 MOL         1 TEMP              0 ****  ****    0 ROOT
