@<TRIPOS>MOLECULE
MOL
  191   184     1     0     0
SMALL
resp


@<TRIPOS>ATOM
      1 C1          6.3570   -3.4910   -3.5190 c3        1 MOL     -0.412506
      2 C2          6.2100   -2.7450   -2.1980 c         1 MOL      0.611326
      3 O1          5.5470   -1.6850   -2.1310 o         1 MOL     -0.609614
      4 H1          5.5830   -4.2550   -3.5920 hc        1 MOL      0.116629
      5 H2          6.2550   -2.7900   -4.3460 hc        1 MOL      0.116629
      6 H3          7.3380   -3.9640   -3.5620 hc        1 MOL      0.116629
      7 N1          6.9110   -3.1780   -1.1230 n         1 MOL     -0.619435
      8 C3          7.1380   -2.5570    0.1770 c3        1 MOL      0.277561
      9 C4          7.6970   -1.1460    0.2180 c         1 MOL      0.261986
     10 O2          8.4660   -0.8910    1.1990 o         1 MOL     -0.475414
     11 C5          6.0150   -2.6710    1.1590 c3        1 MOL     -0.228028
     12 C6          6.5670   -2.5330    2.6150 c         1 MOL      0.777795
     13 O3          6.1150   -1.6520    3.3430 o         1 MOL     -0.663165
     14 O4          7.3730   -3.4550    3.0800 o         1 MOL     -0.663165
     15 H4          7.2520   -4.1130   -1.3020 hn        1 MOL      0.341650
     16 H5          7.9630   -3.1470    0.5780 h1        1 MOL      0.014785
     17 H6          5.6200   -3.6910    1.1440 hc        1 MOL      0.050264
     18 H7          5.2090   -2.0030    0.8770 hc        1 MOL      0.050264
     19 N2          7.3490   -0.2780   -0.7450 n         1 MOL     -0.190847
     20 C7          7.6840    1.1350   -0.6190 c3        1 MOL     -0.038438
     21 C8          6.4000    1.9370   -0.5300 c         1 MOL      0.602781
     22 O5          6.4450    3.1870   -0.4610 o         1 MOL     -0.629497
     23 C9          8.6090    1.7050   -1.6940 c3        1 MOL      0.031730
     24 C10         9.9540    1.0080   -1.7970 c3        1 MOL     -0.099489
     25 C11        10.8180    1.9500   -2.7810 c3        1 MOL      0.081429
     26 C12        12.3200    1.5280   -2.6890 c3        1 MOL     -0.170819
     27 N3         12.7110    0.4020   -3.5760 n4        1 MOL     -0.189496
     28 H8          6.9770   -0.6630   -1.5980 hn        1 MOL      0.236783
     29 H9          8.1200    1.4530    0.3320 h1        1 MOL      0.137328
     30 H10         8.7520    2.7650   -1.4720 hc        1 MOL      0.009713
     31 H11         8.1660    1.7090   -2.6950 hc        1 MOL      0.009713
     32 H12         9.8190   -0.0080   -2.1670 hc        1 MOL      0.041004
     33 H13        10.3880    1.1040   -0.7990 hc        1 MOL      0.041004
     34 H14        10.7670    3.0070   -2.5150 hc        1 MOL      0.029381
     35 H15        10.4940    1.9130   -3.8190 hc        1 MOL      0.029381
     36 H16        12.5410    1.1980   -1.6780 hx        1 MOL      0.133954
     37 H17        12.9310    2.3520   -3.0500 hx        1 MOL      0.133954
     38 H18        12.4250    0.6020   -4.5170 hn        1 MOL      0.240320
     39 H19        13.7080    0.2400   -3.5820 hn        1 MOL      0.240320
     40 H20        12.3120   -0.4840   -3.2650 hn        1 MOL      0.240320
     41 N4          5.2080    1.3670   -0.5210 n         1 MOL     -0.438415
     42 C13         3.9860    2.1710   -0.3070 c3        1 MOL     -0.066486
     43 C14         3.8680    2.6750    1.1530 c         1 MOL      0.611497
     44 O6          3.9670    1.8440    2.0620 o         1 MOL     -0.446760
     45 C15         2.7790    1.3650   -0.7170 c3        1 MOL     -0.104510
     46 C16         1.4850    2.1820   -0.8200 c         1 MOL      0.669490
     47 O7          1.0560    2.5550   -1.9370 o         1 MOL     -0.730318
     48 O8          0.8170    2.4500    0.2090 o         1 MOL     -0.730318
     49 H21         5.1750    0.3590   -0.5120 hn        1 MOL      0.272567
     50 H22         4.1010    3.0120   -0.9900 h1        1 MOL      0.090878
     51 H23         2.5110    0.5670   -0.0250 hc        1 MOL      0.061186
     52 H24         3.0090    0.8150   -1.6230 hc        1 MOL      0.061186
     53 N5          3.4580    3.9510    1.3550 n         1 MOL     -0.448056
     54 C17         3.1520    4.5760    2.6970 c3        1 MOL     -0.077922
     55 C18         2.0730    3.9020    3.6010 c         1 MOL      0.400163
     56 O9          2.0470    4.0720    4.8690 o         1 MOL     -0.533021
     57 H25         3.3090    4.5410    0.5450 hn        1 MOL      0.309786
     58 H26         2.7750    5.5560    2.3930 h1        1 MOL      0.093714
     59 H27         3.9990    4.7090    3.3650 h1        1 MOL      0.093714
     60 N6          1.2150    3.0580    3.0620 n         1 MOL     -0.186171
     61 C19         0.3260    2.0660    3.7650 c3        1 MOL     -0.116894
     62 C20         0.9430    0.6760    3.9500 c         1 MOL      0.505514
     63 O10         0.3040   -0.1960    4.5690 o         1 MOL     -0.530806
     64 C21        -0.9480    1.7440    2.8720 c3        1 MOL     -0.185550
     65 C22        -1.6850    2.9810    2.5210 c         1 MOL      0.615837
     66 N7         -2.5470    3.4000    3.4020 n         1 MOL     -0.688837
     67 O11        -1.6120    3.5630    1.4720 o         1 MOL     -0.657843
     68 H28         1.4440    2.7790    2.1160 hn        1 MOL      0.326188
     69 H29        -0.0220    2.5230    4.6900 h1        1 MOL      0.120272
     70 H30        -1.7180    1.1240    3.3470 hc        1 MOL      0.102989
     71 H31        -0.5970    1.2290    1.9800 hc        1 MOL      0.102989
     72 H32        -2.5680    2.9960    4.3310 hn        1 MOL      0.346628
     73 H33        -3.2090    4.1140    3.1500 hn        1 MOL      0.346628
     74 N8          2.1840    0.3730    3.4940 n         1 MOL     -0.206361
     75 C23         2.8910   -0.8770    3.6410 c3        1 MOL     -0.165331
     76 C24         2.4880   -2.1130    2.7590 c         1 MOL      0.497371
     77 O12         2.9700   -3.1550    3.1090 o         1 MOL     -0.493126
     78 H34         2.5830    0.9970    2.8040 hn        1 MOL      0.108847
     79 H35         2.7740   -1.2560    4.6660 h1        1 MOL      0.147087
     80 H36         3.9510   -0.7750    3.4070 h1        1 MOL      0.147087
     81 N9          1.7060   -1.9080    1.6840 n         1 MOL     -0.362205
     82 C25         1.3120   -2.7490    0.5710 c3        1 MOL     -0.035992
     83 C26        -0.0560   -2.2300    0.1030 c         1 MOL      0.313513
     84 O13        -0.2390   -1.0460    0.0960 o         1 MOL     -0.390319
     85 C27         2.2960   -2.6070   -0.5490 c3        1 MOL     -0.018479
     86 C28         1.9900   -3.3840   -1.7500 ca        1 MOL      0.016938
     87 C29         2.0470   -4.7640   -1.7900 ca        1 MOL     -0.126607
     88 C30         1.6450   -2.6440   -2.9560 ca        1 MOL     -0.126607
     89 C31         1.7260   -5.5100   -2.9780 ca        1 MOL     -0.265121
     90 C32         1.1310   -3.3710   -4.0800 ca        1 MOL     -0.265121
     91 C33         1.2370   -4.7860   -4.0550 ca        1 MOL      0.329006
     92 O14         0.8050   -5.4360   -5.1650 oh        1 MOL     -0.518852
     93 H37         1.1080   -1.1010    1.7530 hn        1 MOL      0.191590
     94 H38         1.2360   -3.7930    0.8840 h1        1 MOL      0.078965
     95 H39         3.2350   -2.9240   -0.0940 hc        1 MOL      0.092177
     96 H40         2.4130   -1.5490   -0.7780 hc        1 MOL      0.092177
     97 H41         2.3330   -5.2910   -0.8940 ha        1 MOL      0.125307
     98 H42         1.6410   -1.5730   -3.0740 ha        1 MOL      0.125307
     99 H43         1.7660   -6.5760   -3.1310 ha        1 MOL      0.156244
    100 H44         0.7780   -2.7670   -4.9070 ha        1 MOL      0.156244
    101 H45         0.6800   -4.8760   -5.9300 ho        1 MOL      0.380195
    102 N10        -1.0100   -3.1460    0.0130 n         1 MOL     -0.219189
    103 C34        -2.4300   -2.8990   -0.2050 c3        1 MOL     -0.079276
    104 C35        -3.0740   -2.1800    1.0000 c         1 MOL      0.277603
    105 O15        -3.8290   -1.2330    0.7840 o         1 MOL     -0.451033
    106 C36        -3.0960   -4.2310   -0.5720 c3        1 MOL     -0.095741
    107 C37        -2.4960   -4.9860   -1.7500 c3        1 MOL      0.300405
    108 C38        -4.5760   -4.0520   -0.8900 c3        1 MOL     -0.311882
    109 C39        -2.3750   -4.3370   -3.1520 c3        1 MOL     -0.255334
    110 H46        -0.7570   -4.1230    0.0730 hn        1 MOL      0.225521
    111 H47        -2.5270   -2.2140   -1.0460 h1        1 MOL      0.151238
    112 H48        -3.2060   -4.8350    0.3270 hc        1 MOL      0.025119
    113 H49        -3.0180   -5.9280   -1.8980 hc        1 MOL     -0.061896
    114 H50        -1.5120   -5.3250   -1.4360 hc        1 MOL     -0.061896
    115 H51        -5.2140   -3.8600   -0.0300 hc        1 MOL      0.103896
    116 H52        -4.8290   -3.2820   -1.6220 hc        1 MOL      0.103896
    117 H53        -4.9050   -4.9840   -1.3530 hc        1 MOL      0.103896
    118 H54        -1.7350   -3.4720   -3.0760 hc        1 MOL      0.069354
    119 H55        -1.9430   -5.1270   -3.7710 hc        1 MOL      0.069354
    120 H56        -3.3450   -3.9940   -3.5160 hc        1 MOL      0.069354
    121 N11        -2.6260   -2.5910    2.2150 n         1 MOL     -0.108597
    122 C40        -3.0260   -1.8340    3.4380 c3        1 MOL     -0.228238
    123 C41        -4.5870   -1.6840    3.5070 c         1 MOL      0.401224
    124 O16        -5.1250   -0.7990    4.1910 o         1 MOL     -0.519211
    125 C42        -2.4560   -2.4670    4.7200 c3        1 MOL      0.128051
    126 O17        -1.0350   -2.4430    4.7220 oh        1 MOL     -0.587522
    127 H57        -2.0330   -3.3790    2.4030 hn        1 MOL      0.233183
    128 H58        -2.5720   -0.8460    3.4970 h1        1 MOL      0.194729
    129 H59        -2.7990   -3.4920    4.6190 h1        1 MOL      0.060077
    130 H60        -2.8440   -1.9570    5.6050 h1        1 MOL      0.060077
    131 H61        -0.5870   -1.6330    4.5040 ho        1 MOL      0.377950
    132 N12        -5.3540   -2.6060    3.0010 n         1 MOL     -0.320543
    133 C43        -6.8300   -2.5460    2.8250 c3        1 MOL      0.359910
    134 C44        -7.3700   -1.1620    2.3490 c         1 MOL      0.373431
    135 O18        -8.5930   -0.9470    2.5480 o         1 MOL     -0.537240
    136 C45        -7.5280   -3.1490    4.0530 c3        1 MOL     -0.579848
    137 H62        -4.8710   -3.4450    2.6810 hn        1 MOL      0.228953
    138 H63        -7.0530   -3.2180    1.9900 h1        1 MOL      0.011451
    139 H64        -6.8480   -3.9520    4.3250 hc        1 MOL      0.158694
    140 H65        -7.5030   -2.4100    4.8590 hc        1 MOL      0.158694
    141 H66        -8.5530   -3.3730    3.7560 hc        1 MOL      0.158694
    142 N13        -6.5450   -0.2930    1.7220 n         1 MOL     -0.302961
    143 C46        -7.0750    0.8390    0.8850 c3        1 MOL      0.223000
    144 C47        -7.3500    0.2990   -0.5840 c         1 MOL      0.327684
    145 O19        -6.4680   -0.4000   -1.1230 o         1 MOL     -0.455199
    146 C48        -5.8220    1.8210    0.8570 c3        1 MOL      0.007357
    147 H67        -5.5880   -0.5600    1.5370 hn        1 MOL      0.151962
    148 H68        -7.9480    1.3530    1.2850 h1        1 MOL      0.030861
    149 H69        -6.1010    2.6610    0.2270 hc        1 MOL      0.004062
    150 H70        -5.6760    2.0930    1.9040 hc        1 MOL      0.004062
    151 H71        -4.9220    1.3490    0.4700 hc        1 MOL      0.004062
    152 N14        -8.3780    0.7760   -1.2920 n         1 MOL     -0.388743
    153 C49        -8.7730    0.6700   -2.7350 c3        1 MOL     -0.110582
    154 C50        -8.9180   -0.7750   -3.2340 c         1 MOL      0.493399
    155 O20        -8.7520   -0.9700   -4.4400 o         1 MOL     -0.521644
    156 C51        -7.9300    1.6720   -3.6360 c3        1 MOL      0.223466
    157 C52        -7.5470    3.0760   -3.0650 c3        1 MOL      0.144664
    158 C53        -6.3190    3.5820   -3.7980 c         1 MOL      0.478488
    159 O21        -6.4170    4.1420   -4.9450 o         1 MOL     -0.635884
    160 O22        -5.2840    3.3740   -3.1730 o         1 MOL     -0.635884
    161 H72        -9.0050    1.3510   -0.7540 hn        1 MOL      0.249245
    162 H73        -9.7150    1.2180   -2.7620 h1        1 MOL      0.074663
    163 H74        -8.3960    1.7180   -4.6210 hc        1 MOL     -0.013012
    164 H75        -6.9610    1.1850   -3.7770 hc        1 MOL     -0.013012
    165 H76        -7.4430    3.0910   -1.9760 hc        1 MOL     -0.093986
    166 H77        -8.4170    3.7140   -3.2220 hc        1 MOL     -0.093986
    167 N15        -9.4580   -1.6430   -2.4350 n         1 MOL     -0.351270
    168 C54        -9.4510   -3.1270   -2.7110 c3        1 MOL      0.071481
    169 H78        -8.9550   -3.3170   -3.6630 h1        1 MOL      0.034215
    170 H79        -8.9150   -3.6430   -1.9140 h1        1 MOL      0.034215
    171 H80       -10.4760   -3.4940   -2.7560 h1        1 MOL      0.034215
    172 H81        -9.6410   -1.3220   -1.4920 hn        1 MOL      0.248856
    173 Ca1        -1.1630    3.8660   -1.1760 Ca        1 MOL      1.752587
    174 O23         0.3130    5.7060    0.3830 oh        1 MOL     -0.829801
    175 H82         0.5930    6.5220   -0.0360 ho        1 MOL      0.404762
    176 H83        -0.1180    5.9890    1.1910 ho        1 MOL      0.404762
    177 O24        -1.6940    1.3360   -1.0200 oh        1 MOL     -0.829801
    178 H84        -1.1120    0.6770   -0.6470 ho        1 MOL      0.404762
    179 H85        -2.5670    0.9610   -0.9320 ho        1 MOL      0.404762
    180 O25         0.4150    5.3790   -2.6980 oh        1 MOL     -0.829801
    181 H86         0.2550    6.1340   -3.2580 ho        1 MOL      0.404762
    182 H87         1.3160    5.4970   -2.3830 ho        1 MOL      0.404762
    183 O26        -3.8310    3.8830   -0.9100 oh        1 MOL     -0.829801
    184 H88        -4.6050    3.8500   -1.4700 ho        1 MOL      0.404762
    185 H89        -4.1130    4.3710   -0.1400 ho        1 MOL      0.404762
    186 O27        -2.1460    6.2020   -1.0160 oh        1 MOL     -0.829801
    187 H90        -1.5260    6.9370   -0.9600 ho        1 MOL      0.404762
    188 H91        -2.8810    6.5570   -1.5230 ho        1 MOL      0.404762
    189 O28        -2.4930    4.1560   -3.3770 oh        1 MOL     -0.829801
    190 H92        -3.4090    3.8970   -3.4540 ho        1 MOL      0.404762
    191 H93        -2.3830    4.8320   -4.0460 ho        1 MOL      0.404762
@<TRIPOS>BOND
     1    1    2 1   
     2    1    4 1   
     3    1    5 1   
     4    1    6 1   
     5    2    3 2   
     6    2    7 1   
     7    7    8 1   
     8    7   15 1   
     9    8    9 1   
    10    8   11 1   
    11    8   16 1   
    12    9   10 2   
    13    9   19 1   
    14   11   12 1   
    15   11   17 1   
    16   11   18 1   
    17   12   13 1   
    18   12   14 1   
    19   19   20 1   
    20   19   28 1   
    21   20   21 1   
    22   20   23 1   
    23   20   29 1   
    24   21   22 2   
    25   21   41 1   
    26   23   24 1   
    27   23   30 1   
    28   23   31 1   
    29   24   25 1   
    30   24   32 1   
    31   24   33 1   
    32   25   26 1   
    33   25   34 1   
    34   25   35 1   
    35   26   27 1   
    36   26   36 1   
    37   26   37 1   
    38   27   38 1   
    39   27   39 1   
    40   27   40 1   
    41   41   42 1   
    42   41   49 1   
    43   42   43 1   
    44   42   45 1   
    45   42   50 1   
    46   43   44 2   
    47   43   53 1   
    48   45   46 1   
    49   45   51 1   
    50   45   52 1   
    51   46   47 1   
    52   46   48 1   
    53   53   54 1   
    54   53   57 1   
    55   54   55 1   
    56   54   58 1   
    57   54   59 1   
    58   55   56 2   
    59   55   60 1   
    60   60   61 1   
    61   60   68 1   
    62   61   62 1   
    63   61   64 1   
    64   61   69 1   
    65   62   63 2   
    66   62   74 1   
    67   64   65 1   
    68   64   70 1   
    69   64   71 1   
    70   65   66 1   
    71   65   67 2   
    72   66   72 1   
    73   66   73 1   
    74   74   75 1   
    75   74   78 1   
    76   75   76 1   
    77   75   79 1   
    78   75   80 1   
    79   76   77 2   
    80   76   81 1   
    81   81   82 1   
    82   81   93 1   
    83   82   83 1   
    84   82   85 1   
    85   82   94 1   
    86   83   84 2   
    87   83  102 1   
    88   85   86 1   
    89   85   95 1   
    90   85   96 1   
    91   86   87 ar  
    92   86   88 ar  
    93   87   89 ar  
    94   87   97 1   
    95   88   90 ar  
    96   88   98 1   
    97   89   91 ar  
    98   89   99 1   
    99   90   91 ar  
   100   90  100 1   
   101   91   92 1   
   102   92  101 1   
   103  102  103 1   
   104  102  110 1   
   105  103  104 1   
   106  103  106 1   
   107  103  111 1   
   108  104  105 2   
   109  104  121 1   
   110  106  107 1   
   111  106  108 1   
   112  106  112 1   
   113  107  109 1   
   114  107  113 1   
   115  107  114 1   
   116  108  115 1   
   117  108  116 1   
   118  108  117 1   
   119  109  118 1   
   120  109  119 1   
   121  109  120 1   
   122  121  122 1   
   123  121  127 1   
   124  122  123 1   
   125  122  125 1   
   126  122  128 1   
   127  123  124 2   
   128  123  132 1   
   129  125  126 1   
   130  125  129 1   
   131  125  130 1   
   132  126  131 1   
   133  132  133 1   
   134  132  137 1   
   135  133  134 1   
   136  133  136 1   
   137  133  138 1   
   138  134  135 2   
   139  134  142 1   
   140  136  139 1   
   141  136  140 1   
   142  136  141 1   
   143  142  143 1   
   144  142  147 1   
   145  143  144 1   
   146  143  146 1   
   147  143  148 1   
   148  144  145 2   
   149  144  152 1   
   150  146  149 1   
   151  146  150 1   
   152  146  151 1   
   153  152  153 1   
   154  152  161 1   
   155  153  154 1   
   156  153  156 1   
   157  153  162 1   
   158  154  155 2   
   159  154  167 1   
   160  156  157 1   
   161  156  163 1   
   162  156  164 1   
   163  157  158 1   
   164  157  165 1   
   165  157  166 1   
   166  158  159 1   
   167  158  160 1   
   168  167  168 1   
   169  167  172 1   
   170  168  169 1   
   171  168  170 1   
   172  168  171 1   
   173  174  175 1   
   174  174  176 1   
   175  177  178 1   
   176  177  179 1   
   177  180  181 1   
   178  180  182 1   
   179  183  184 1   
   180  183  185 1   
   181  186  187 1   
   182  186  188 1   
   183  189  190 1   
   184  189  191 1   
@<TRIPOS>SUBSTRUCTURE
     1 MOL         1 TEMP              0 ****  ****    0 ROOT
