@<TRIPOS>MOLECULE
MOL
  192   187     1     0     0
SMALL
resp


@<TRIPOS>ATOM
      1 C1         11.2770    5.7180   -2.4960 c3        1 MOL     -0.211568
      2 C2         11.3620    4.4740   -1.7120 c         1 MOL      0.723241
      3 O1         11.8530    3.4720   -2.1340 o         1 MOL     -0.618029
      4 H1         12.2160    6.2650   -2.4110 hc        1 MOL      0.047257
      5 H2         11.0910    5.4770   -3.5430 hc        1 MOL      0.047257
      6 H3         10.4630    6.3340   -2.1140 hc        1 MOL      0.047257
      7 N1         10.7940    4.5680   -0.5140 n         1 MOL     -0.318163
      8 C3         10.4960    3.4590    0.4220 c3        1 MOL     -0.463331
      9 C4          9.3800    2.5790   -0.0270 c         1 MOL      0.594012
     10 O2          8.4090    3.0590   -0.5930 o         1 MOL     -0.616936
     11 C5         10.3430    4.0740    1.7770 c3        1 MOL     -0.166762
     12 C6          9.0960    5.0600    2.0530 c         1 MOL      0.752775
     13 O3          8.3420    5.3920    1.1220 o         1 MOL     -0.694411
     14 O4          8.9420    5.5040    3.2090 o         1 MOL     -0.694411
     15 H4         10.3640    5.4780   -0.3620 hn        1 MOL      0.181938
     16 H5         11.4120    2.8550    0.3820 h1        1 MOL      0.192428
     17 H6         11.2430    4.6410    1.9760 hc        1 MOL      0.099677
     18 H7         10.3170    3.1860    2.4210 hc        1 MOL      0.099677
     19 N2          9.5790    1.2270    0.1090 n         1 MOL     -0.232737
     20 C7          8.6780    0.2200   -0.3730 c3        1 MOL      0.047669
     21 C8          7.6850   -0.4310    0.6660 c         1 MOL      0.468779
     22 O5          8.0400   -1.0820    1.5910 o         1 MOL     -0.517487
     23 C9          9.6350   -0.8690   -0.9940 c3        1 MOL     -0.413723
     24 C10         9.0160   -1.8940   -2.0020 c3        1 MOL      0.185275
     25 C11         9.9940   -3.0350   -2.2540 c3        1 MOL     -0.046928
     26 C12        10.1070   -3.8600   -0.9760 c3        1 MOL      0.113429
     27 N3         10.7870   -5.1450   -1.2220 n4        1 MOL     -0.427675
     28 H8         10.5060    1.0160    0.4390 hn        1 MOL      0.234222
     29 H9          8.0660    0.6610   -1.1530 h1        1 MOL      0.131767
     30 H10        10.1230   -1.4300   -0.2020 hc        1 MOL      0.117647
     31 H11        10.3740   -0.3440   -1.6070 hc        1 MOL      0.117647
     32 H12         8.7570   -1.4000   -2.9280 hc        1 MOL     -0.011386
     33 H13         8.0620   -2.2690   -1.6340 hc        1 MOL     -0.011386
     34 H14        10.9510   -2.7040   -2.6450 hc        1 MOL      0.026017
     35 H15         9.5020   -3.6550   -3.0100 hc        1 MOL      0.026017
     36 H16         9.0950   -4.1540   -0.6770 hx        1 MOL      0.078422
     37 H17        10.5770   -3.2570   -0.1980 hx        1 MOL      0.078422
     38 H18        11.7640   -4.9880   -1.4390 hn        1 MOL      0.320508
     39 H19        10.8650   -5.6240   -0.3280 hn        1 MOL      0.320508
     40 H20        10.3030   -5.7420   -1.8660 hn        1 MOL      0.320508
     41 N4          6.3970   -0.2540    0.3550 n         1 MOL     -0.296789
     42 C13         5.3060   -0.4960    1.2530 c3        1 MOL      0.084507
     43 C14         3.9380   -0.4580    0.5180 c         1 MOL      0.268125
     44 O6          3.8200    0.0780   -0.6000 o         1 MOL     -0.461613
     45 C15         5.3160    0.6550    2.3150 c3        1 MOL     -0.133046
     46 C16         5.5480    2.0860    1.7830 c         1 MOL      0.548334
     47 O7          6.5430    2.7880    2.0660 o         1 MOL     -0.645394
     48 O8          4.7420    2.5460    0.9410 o         1 MOL     -0.645394
     49 H21         6.0920    0.2690   -0.4520 hn        1 MOL      0.165618
     50 H22         5.3590   -1.4180    1.8470 h1        1 MOL      0.106441
     51 H23         6.1310    0.4230    2.9890 hc        1 MOL      0.067283
     52 H24         4.4540    0.6700    2.9730 hc        1 MOL      0.067283
     53 N5          2.8200   -0.7390    1.1180 n         1 MOL     -0.290931
     54 C17         2.6650   -1.5620    2.3480 c3        1 MOL     -0.148419
     55 C18         2.9600   -3.0580    2.1910 c         1 MOL      0.625705
     56 O9          3.5930   -3.4960    1.2670 o         1 MOL     -0.550497
     57 H25         1.9870   -0.6080    0.5720 hn        1 MOL      0.281546
     58 H26         1.6360   -1.3820    2.6520 h1        1 MOL      0.094280
     59 H27         3.2710   -1.1210    3.1340 h1        1 MOL      0.094280
     60 N6          2.3200   -3.9170    3.0160 n         1 MOL     -0.392330
     61 C19         2.5580   -5.3920    3.0340 c3        1 MOL     -0.111636
     62 C20         1.9720   -6.1430    1.8170 c         1 MOL      0.360200
     63 O10         2.5600   -7.0290    1.2160 o         1 MOL     -0.494331
     64 C21         2.0490   -6.0710    4.3220 c3        1 MOL     -0.016738
     65 C22         2.7050   -5.7330    5.6290 c         1 MOL      0.681407
     66 O11         3.3920   -6.6370    6.1290 o         1 MOL     -0.681618
     67 O12         2.5080   -4.5360    6.0380 o         1 MOL     -0.681618
     68 H28         1.8070   -3.5350    3.7970 hn        1 MOL      0.218675
     69 H29         3.6270   -5.5300    2.9110 h1        1 MOL      0.137106
     70 H30         2.1670   -7.1530    4.2210 hc        1 MOL      0.007372
     71 H31         0.9560   -6.0960    4.4300 hc        1 MOL      0.007372
     72 N7          0.7890   -5.7260    1.4190 n         1 MOL     -0.206027
     73 C23        -0.0180   -6.0750    0.1850 c3        1 MOL     -0.096216
     74 C24         0.3870   -5.3010   -1.0380 c         1 MOL      0.555239
     75 O13         0.4870   -5.8370   -2.0970 o         1 MOL     -0.557086
     76 H32         0.3280   -5.0500    2.0070 hn        1 MOL      0.219707
     77 H33        -0.9990   -5.6630    0.3920 h1        1 MOL      0.077660
     78 H34        -0.0090   -7.1620    0.0440 h1        1 MOL      0.077660
     79 N8          0.6440   -4.0020   -0.8610 n         1 MOL     -0.078086
     80 C25         0.9100   -3.1110   -1.9400 c3        1 MOL     -0.255301
     81 C26         0.2610   -1.7030   -1.7240 c         1 MOL      0.319270
     82 O14         0.2560   -1.2240   -0.5940 o         1 MOL     -0.445585
     83 C27         2.4060   -2.8190   -2.0360 c3        1 MOL      0.539050
     84 C28         3.3860   -3.9510   -2.3630 c3        1 MOL     -0.538493
     85 O15         2.6220   -1.8230   -3.0730 oh        1 MOL     -0.687870
     86 H35         0.6690   -3.6460    0.0860 hn        1 MOL      0.143659
     87 H36         0.4890   -3.5060   -2.8600 h1        1 MOL      0.101367
     88 H37         2.7810   -2.3380   -1.1410 h1        1 MOL     -0.001284
     89 H38         3.5380   -1.5330   -3.0820 ho        1 MOL      0.386904
     90 H39         3.2020   -4.6760   -1.5590 hc        1 MOL      0.137571
     91 H40         3.1100   -4.3760   -3.3280 hc        1 MOL      0.137571
     92 H41         4.4350   -3.7030   -2.4310 hc        1 MOL      0.137571
     93 N9         -0.5020   -1.2270   -2.7080 n         1 MOL     -0.087330
     94 C29        -1.1370    0.0990   -2.6960 c3        1 MOL     -0.104515
     95 C30        -2.4990    0.0210   -1.9730 c         1 MOL      0.429124
     96 O16        -2.8170    0.9740   -1.2680 o         1 MOL     -0.503936
     97 C31        -1.2540    0.5490   -4.1780 c3        1 MOL      0.168908
     98 C32         0.0560    0.6690   -4.9690 c3        1 MOL      0.027375
     99 C33        -2.0260    1.8690   -4.1410 c3        1 MOL     -0.442016
    100 C34         1.1260    1.5380   -4.2700 c3        1 MOL     -0.177638
    101 H42        -0.6380   -1.8630   -3.4710 hn        1 MOL      0.235633
    102 H43        -0.6450    0.8820   -2.1130 h1        1 MOL      0.123992
    103 H44        -1.7310   -0.1880   -4.8230 hc        1 MOL      0.000658
    104 H45        -0.2340    1.2220   -5.8690 hc        1 MOL     -0.008860
    105 H46         0.3230   -0.3420   -5.2960 hc        1 MOL     -0.008860
    106 H47        -3.0470    1.8190   -3.7780 hc        1 MOL      0.122787
    107 H48        -1.5470    2.6640   -3.5710 hc        1 MOL      0.122787
    108 H49        -1.9560    2.1770   -5.1830 hc        1 MOL      0.122787
    109 H50         0.7370    2.4590   -3.8370 hc        1 MOL      0.049440
    110 H51         1.5760    0.8920   -3.5200 hc        1 MOL      0.049440
    111 H52         1.8220    1.8780   -5.0300 hc        1 MOL      0.049440
    112 N10        -3.2260   -1.0900   -2.0270 n         1 MOL     -0.408872
    113 C35        -4.2310   -1.3340   -0.9360 c3        1 MOL      0.155744
    114 C36        -5.4770   -2.0610   -1.5380 c         1 MOL      0.527346
    115 O17        -5.3440   -2.7870   -2.5260 o         1 MOL     -0.484989
    116 C37        -3.7090   -2.1600    0.2580 c3        1 MOL      0.158271
    117 C38        -3.0870   -3.5070   -0.1850 c3        1 MOL     -0.039904
    118 O18        -2.6930   -1.4920    0.9670 oh        1 MOL     -0.547066
    119 H53        -2.8800   -1.8880   -2.5370 hn        1 MOL      0.215535
    120 H54        -4.6090   -0.4050   -0.5130 h1        1 MOL      0.050101
    121 H55        -4.5680   -2.3160    0.9130 h1        1 MOL      0.004796
    122 H56        -3.0070   -0.6000    1.1000 ho        1 MOL      0.391045
    123 H57        -2.1530   -3.3970   -0.7240 hc        1 MOL      0.002383
    124 H58        -2.8730   -4.1460    0.6710 hc        1 MOL      0.002383
    125 H59        -3.8030   -4.0840   -0.7760 hc        1 MOL      0.002383
    126 N11        -6.7530   -1.6700   -1.1740 n         1 MOL     -0.568513
    127 C39        -7.9700   -2.2450   -1.8140 c3        1 MOL      0.038185
    128 C40        -8.8930   -1.0750   -2.0940 c         1 MOL      0.533007
    129 O19        -9.2480   -0.7460   -3.2440 o         1 MOL     -0.554033
    130 C41        -8.5690   -3.5060   -1.0360 c3        1 MOL      0.258409
    131 C42        -9.6500   -4.2520   -1.7990 c3        1 MOL     -0.435338
    132 O20        -9.1700   -3.0890    0.1320 oh        1 MOL     -0.557409
    133 H60        -6.7990   -1.1280   -0.3240 hn        1 MOL      0.280762
    134 H61        -7.6550   -2.6820   -2.7610 h1        1 MOL      0.095333
    135 H62        -7.7650   -4.1700   -0.7640 h1        1 MOL      0.049499
    136 H63        -8.5990   -3.2030    0.8880 ho        1 MOL      0.380590
    137 H64       -10.4780   -3.5730   -1.9880 hc        1 MOL      0.123637
    138 H65        -9.3430   -4.7100   -2.7420 hc        1 MOL      0.123637
    139 H66       -10.0690   -4.9990   -1.1210 hc        1 MOL      0.123637
    140 N12        -9.2720   -0.4290   -1.0150 n         1 MOL     -0.245295
    141 C43       -10.1110    0.8040   -0.9550 c3        1 MOL     -0.026405
    142 C44        -9.7530    1.5970    0.2800 c         1 MOL      0.450819
    143 O21        -9.1400    1.1440    1.2610 o         1 MOL     -0.480101
    144 C45       -11.6130    0.4090   -0.9890 c3        1 MOL     -0.189740
    145 C46       -12.0800   -0.3700    0.2610 c3        1 MOL      0.051820
    146 C47       -13.4490   -1.0730    0.2000 c3        1 MOL     -0.163697
    147 C48       -13.8900   -1.6940    1.5190 c3        1 MOL      0.107016
    148 N13       -15.2420   -2.1730    1.2860 n4        1 MOL     -0.167052
    149 H67        -8.8420   -0.6610   -0.1390 hn        1 MOL      0.186042
    150 H68        -9.9100    1.4220   -1.8390 h1        1 MOL      0.109598
    151 H69       -11.8500   -0.0230   -1.9690 hc        1 MOL      0.089755
    152 H70       -12.2220    1.3190   -0.9450 hc        1 MOL      0.089755
    153 H71       -12.1980    0.2840    1.1300 hc        1 MOL      0.021826
    154 H72       -11.2520   -1.0490    0.4500 hc        1 MOL      0.021826
    155 H73       -13.3580   -1.8030   -0.6060 hc        1 MOL      0.062798
    156 H74       -14.1580   -0.2930   -0.0890 hc        1 MOL      0.062798
    157 H75       -13.8120   -0.9920    2.3430 hx        1 MOL      0.068763
    158 H76       -13.3380   -2.5880    1.8210 hx        1 MOL      0.068763
    159 H77       -15.2780   -2.5380    0.3500 hn        1 MOL      0.228749
    160 H78       -15.5640   -2.8090    2.0010 hn        1 MOL      0.228749
    161 H79       -15.9710   -1.4710    1.2180 hn        1 MOL      0.228749
    162 N14       -10.0670    2.8860    0.3080 n         1 MOL     -0.467329
    163 C49        -9.8010    3.8390    1.4060 c3        1 MOL      0.210341
    164 C50        -8.3390    4.0950    1.8200 c         1 MOL      0.283029
    165 O22        -7.8990    3.8490    2.9630 o         1 MOL     -0.494937
    166 C51       -10.6850    5.0840    1.0370 c3        1 MOL      0.115174
    167 C52       -10.4640    6.2730    1.9760 c3        1 MOL     -0.149162
    168 C53       -11.6870    7.1840    1.9670 c         1 MOL      0.658711
    169 O23       -12.3950    7.2060    3.0100 o         1 MOL     -0.657255
    170 O24       -11.9740    7.6640    0.8590 o         1 MOL     -0.657255
    171 H80       -10.6740    3.1350   -0.4530 hn        1 MOL      0.249108
    172 H81       -10.1680    3.4880    2.3640 h1        1 MOL      0.051232
    173 H82       -11.7310    4.7810    0.9970 hc        1 MOL     -0.021169
    174 H83       -10.3740    5.4070    0.0470 hc        1 MOL     -0.021169
    175 H84        -9.5540    6.7820    1.6610 hc        1 MOL      0.009886
    176 H85       -10.3060    5.8140    2.9590 hc        1 MOL      0.009886
    177 N15        -7.4600    4.3360    0.8440 n         1 MOL     -0.195539
    178 C54        -7.6150    4.7180   -0.5790 c3        1 MOL     -0.231025
    179 H86        -8.4730    4.1970   -1.0040 h1        1 MOL      0.103165
    180 H87        -7.7710    5.7940   -0.6520 h1        1 MOL      0.103165
    181 H88        -6.7150    4.4440   -1.1300 h1        1 MOL      0.103165
    182 H89        -6.4990    4.2760    1.1700 hn        1 MOL      0.247525
    183 Ca1         6.2520    4.6030    0.0680 Ca        1 MOL      1.761902
    184 O25         3.5520    5.1280   -0.2180 oh        1 MOL     -0.894037
    185 H90         2.7720    4.5680   -0.2880 ho        1 MOL      0.435911
    186 H91         3.3370    5.7350    0.4840 ho        1 MOL      0.435911
    187 O26         5.0780    5.9600    2.1920 oh        1 MOL     -0.894037
    188 H92         5.4120    5.9910    3.0870 ho        1 MOL      0.435911
    189 H93         4.2110    6.3480    2.2410 ho        1 MOL      0.435911
    190 O27         5.9040    2.7820   -1.7840 oh        1 MOL     -0.894037
    191 H94         5.1510    2.2290   -1.9730 ho        1 MOL      0.435911
    192 H95         6.3130    2.9520   -2.6350 ho        1 MOL      0.435911
@<TRIPOS>BOND
     1    1    2 1   
     2    1    4 1   
     3    1    5 1   
     4    1    6 1   
     5    2    3 2   
     6    2    7 1   
     7    7    8 1   
     8    7   15 1   
     9    8    9 1   
    10    8   11 1   
    11    8   16 1   
    12    9   10 2   
    13    9   19 1   
    14   11   12 1   
    15   11   17 1   
    16   11   18 1   
    17   12   13 1   
    18   12   14 1   
    19   19   20 1   
    20   19   28 1   
    21   20   21 1   
    22   20   23 1   
    23   20   29 1   
    24   21   22 2   
    25   21   41 1   
    26   23   24 1   
    27   23   30 1   
    28   23   31 1   
    29   24   25 1   
    30   24   32 1   
    31   24   33 1   
    32   25   26 1   
    33   25   34 1   
    34   25   35 1   
    35   26   27 1   
    36   26   36 1   
    37   26   37 1   
    38   27   38 1   
    39   27   39 1   
    40   27   40 1   
    41   41   42 1   
    42   41   49 1   
    43   42   43 1   
    44   42   45 1   
    45   42   50 1   
    46   43   44 2   
    47   43   53 1   
    48   45   46 1   
    49   45   51 1   
    50   45   52 1   
    51   46   47 1   
    52   46   48 1   
    53   53   54 1   
    54   53   57 1   
    55   54   55 1   
    56   54   58 1   
    57   54   59 1   
    58   55   56 2   
    59   55   60 1   
    60   60   61 1   
    61   60   68 1   
    62   61   62 1   
    63   61   64 1   
    64   61   69 1   
    65   62   63 2   
    66   62   72 1   
    67   64   65 1   
    68   64   70 1   
    69   64   71 1   
    70   65   66 1   
    71   65   67 1   
    72   72   73 1   
    73   72   76 1   
    74   73   74 1   
    75   73   77 1   
    76   73   78 1   
    77   74   75 2   
    78   74   79 1   
    79   79   80 1   
    80   79   86 1   
    81   80   81 1   
    82   80   83 1   
    83   80   87 1   
    84   81   82 2   
    85   81   93 1   
    86   83   84 1   
    87   83   85 1   
    88   83   88 1   
    89   84   90 1   
    90   84   91 1   
    91   84   92 1   
    92   85   89 1   
    93   93   94 1   
    94   93  101 1   
    95   94   95 1   
    96   94   97 1   
    97   94  102 1   
    98   95   96 2   
    99   95  112 1   
   100   97   98 1   
   101   97   99 1   
   102   97  103 1   
   103   98  100 1   
   104   98  104 1   
   105   98  105 1   
   106   99  106 1   
   107   99  107 1   
   108   99  108 1   
   109  100  109 1   
   110  100  110 1   
   111  100  111 1   
   112  112  113 1   
   113  112  119 1   
   114  113  114 1   
   115  113  116 1   
   116  113  120 1   
   117  114  115 2   
   118  114  126 1   
   119  116  117 1   
   120  116  118 1   
   121  116  121 1   
   122  117  123 1   
   123  117  124 1   
   124  117  125 1   
   125  118  122 1   
   126  126  127 1   
   127  126  133 1   
   128  127  128 1   
   129  127  130 1   
   130  127  134 1   
   131  128  129 2   
   132  128  140 1   
   133  130  131 1   
   134  130  132 1   
   135  130  135 1   
   136  131  137 1   
   137  131  138 1   
   138  131  139 1   
   139  132  136 1   
   140  140  141 1   
   141  140  149 1   
   142  141  142 1   
   143  141  144 1   
   144  141  150 1   
   145  142  143 2   
   146  142  162 1   
   147  144  145 1   
   148  144  151 1   
   149  144  152 1   
   150  145  146 1   
   151  145  153 1   
   152  145  154 1   
   153  146  147 1   
   154  146  155 1   
   155  146  156 1   
   156  147  148 1   
   157  147  157 1   
   158  147  158 1   
   159  148  159 1   
   160  148  160 1   
   161  148  161 1   
   162  162  163 1   
   163  162  171 1   
   164  163  164 1   
   165  163  166 1   
   166  163  172 1   
   167  164  165 2   
   168  164  177 1   
   169  166  167 1   
   170  166  173 1   
   171  166  174 1   
   172  167  168 1   
   173  167  175 1   
   174  167  176 1   
   175  168  169 1   
   176  168  170 1   
   177  177  178 1   
   178  177  182 1   
   179  178  179 1   
   180  178  180 1   
   181  178  181 1   
   182  184  185 1   
   183  184  186 1   
   184  187  188 1   
   185  187  189 1   
   186  190  191 1   
   187  190  192 1   
@<TRIPOS>SUBSTRUCTURE
     1 MOL         1 TEMP              0 ****  ****    0 ROOT
