@<TRIPOS>MOLECULE
MOL
  182   178     1     0     0
SMALL
resp


@<TRIPOS>ATOM
      1 C1         -3.4820   -3.3330    5.8750 c3        1 MOL     -0.270424
      2 C2         -2.9690   -3.3000    4.3930 c         1 MOL      0.686232
      3 O1         -3.7440   -3.6340    3.4560 o         1 MOL     -0.549556
      4 H1         -3.3000   -2.3660    6.3440 hc        1 MOL      0.076079
      5 H2         -4.5500   -3.5460    5.8870 hc        1 MOL      0.076079
      6 H3         -2.9500   -4.1090    6.4270 hc        1 MOL      0.076079
      7 N1         -1.6730   -2.9070    4.1620 n         1 MOL     -0.634914
      8 C3         -1.0800   -2.7660    2.8420 c3        1 MOL     -0.075686
      9 C4         -1.0800   -4.0650    2.0110 c         1 MOL      0.795407
     10 O2         -0.5810   -5.0920    2.4010 o         1 MOL     -0.579026
     11 C5          0.3320   -2.1750    3.0990 c3        1 MOL      0.095838
     12 C6          1.2400   -1.9230    1.9070 c         1 MOL      0.659004
     13 O3          2.2740   -1.2860    2.0820 o         1 MOL     -0.741635
     14 O4          0.9400   -2.4060    0.8000 o         1 MOL     -0.741635
     15 H4         -1.1480   -2.5110    4.9370 hn        1 MOL      0.338648
     16 H5         -1.6060   -2.0300    2.2390 h1        1 MOL      0.008041
     17 H6          0.8160   -2.8770    3.7810 hc        1 MOL     -0.014355
     18 H7          0.2770   -1.2000    3.5740 hc        1 MOL     -0.014355
     19 N2         -1.6960   -4.0250    0.8680 n         1 MOL     -0.457149
     20 C7         -1.8310   -5.1900   -0.0130 c3        1 MOL     -0.038823
     21 C8         -0.6560   -5.7680   -0.7720 c         1 MOL      0.542335
     22 O5         -0.6750   -6.9950   -0.8900 o         1 MOL     -0.548727
     23 C9         -3.0500   -4.9280   -0.9260 c3        1 MOL      0.045308
     24 C10        -2.6230   -4.2830   -2.2110 c3        1 MOL     -0.268318
     25 C11        -3.8300   -4.0650   -3.1620 c3        1 MOL     -0.021266
     26 C12        -3.2520   -3.5220   -4.4840 c3        1 MOL      0.067944
     27 N3         -4.2910   -3.4080   -5.5020 n4        1 MOL     -0.293185
     28 H8         -2.2200   -3.2040    0.6050 hn        1 MOL      0.284340
     29 H9         -2.2130   -5.9910    0.6140 h1        1 MOL      0.120001
     30 H10        -3.8250   -4.3700   -0.4050 hc        1 MOL      0.044288
     31 H11        -3.5210   -5.9090   -1.0300 hc        1 MOL      0.044288
     32 H12        -1.9480   -4.8850   -2.8180 hc        1 MOL      0.102602
     33 H13        -2.2920   -3.3130   -1.8550 hc        1 MOL      0.102602
     34 H14        -4.4770   -3.3360   -2.6830 hc        1 MOL      0.051234
     35 H15        -4.3650   -4.9980   -3.3480 hc        1 MOL      0.051234
     36 H16        -2.4520   -4.1600   -4.8780 hx        1 MOL      0.059116
     37 H17        -2.9040   -2.4990   -4.3770 hx        1 MOL      0.059116
     38 H18        -3.9060   -3.0600   -6.3740 hn        1 MOL      0.289849
     39 H19        -4.6110   -4.3460   -5.6730 hn        1 MOL      0.289849
     40 H20        -5.0990   -2.8640   -5.2560 hn        1 MOL      0.289849
     41 N4          0.3850   -4.9410   -0.9430 n         1 MOL     -0.404791
     42 C13         1.6550   -5.2890   -1.5590 c3        1 MOL      0.204708
     43 C14         2.8210   -5.3760   -0.5540 c         1 MOL      0.377346
     44 O6          3.8100   -6.0590   -0.8240 o         1 MOL     -0.539292
     45 C15         1.9630   -4.2790   -2.6640 c3        1 MOL     -0.462295
     46 C16         2.0490   -2.8210   -2.1360 c         1 MOL      0.895713
     47 O7          3.0190   -2.4250   -1.4300 o         1 MOL     -0.823841
     48 O8          1.0890   -2.0140   -2.2750 o         1 MOL     -0.823841
     49 H21         0.2340   -4.0290   -0.5420 hn        1 MOL      0.168093
     50 H22         1.6420   -6.2210   -2.1250 h1        1 MOL      0.074689
     51 H23         1.2750   -4.3880   -3.5020 hc        1 MOL      0.126287
     52 H24         2.9480   -4.5270   -3.0600 hc        1 MOL      0.126287
     53 N5          2.7380   -4.6390    0.5750 n         1 MOL     -0.027844
     54 C17         3.7520   -4.6750    1.6880 c3        1 MOL     -0.326070
     55 C18         5.0530   -4.0470    1.2200 c         1 MOL      0.612590
     56 O9          6.1180   -4.3710    1.7080 o         1 MOL     -0.575644
     57 H25         1.9840   -3.9780    0.6910 hn        1 MOL      0.088919
     58 H26         3.8610   -5.6990    2.0510 h1        1 MOL      0.158631
     59 H27         3.4490   -4.1040    2.5670 h1        1 MOL      0.158631
     60 N6          5.1180   -3.2030    0.1700 n         1 MOL     -0.389836
     61 C19         6.3120   -2.3890   -0.1450 c3        1 MOL      0.006970
     62 C20         5.8490   -0.9030   -0.3680 c         1 MOL      0.637091
     63 O10         4.6660   -0.5580   -0.2730 o         1 MOL     -0.541904
     64 C21         7.0310   -2.9240   -1.4380 c3        1 MOL     -0.189017
     65 C22         6.2490   -3.1310   -2.7250 c         1 MOL      0.665461
     66 N7          5.6130   -4.2600   -2.9240 n         1 MOL     -0.748376
     67 O11         6.2420   -2.2970   -3.5960 o         1 MOL     -0.599146
     68 H28         4.2730   -2.9260   -0.3040 hn        1 MOL      0.420650
     69 H29         7.0120   -2.3330    0.6980 h1        1 MOL      0.077927
     70 H30         7.5570   -3.8720   -1.2930 hc        1 MOL      0.051317
     71 H31         7.8540   -2.2490   -1.6830 hc        1 MOL      0.051317
     72 H32         5.8040   -5.0330   -2.2910 hn        1 MOL      0.350946
     73 H33         5.1820   -4.3310   -3.8270 hn        1 MOL      0.350946
     74 N8          6.8940   -0.0650   -0.4370 n         1 MOL     -0.600736
     75 C23         6.7440    1.3260   -0.9310 c3        1 MOL      0.081804
     76 C24         5.9270    2.1670    0.0050 c         1 MOL      0.593477
     77 O12         6.0800    2.0560    1.2190 o         1 MOL     -0.507440
     78 H34         7.7950   -0.5010   -0.4990 hn        1 MOL      0.366226
     79 H35         6.2050    1.3220   -1.8760 h1        1 MOL      0.045558
     80 H36         7.6540    1.8520   -1.2360 h1        1 MOL      0.045558
     81 N9          5.0530    3.0190   -0.5380 n         1 MOL     -0.702828
     82 C25         4.1380    3.8430    0.2470 c3        1 MOL      0.393871
     83 C26         3.1440    2.9600    1.0040 c         1 MOL      0.077775
     84 O13         3.1150    1.7690    0.7560 o         1 MOL     -0.254342
     85 C27         3.3410    4.8440   -0.6520 c3        1 MOL      0.006950
     86 C28         4.2240    5.9250   -1.1380 ca        1 MOL      0.036857
     87 C29         4.8200    6.7310   -0.1780 ca        1 MOL     -0.213870
     88 C30         4.1770    6.4000   -2.5070 ca        1 MOL     -0.213870
     89 C31         5.5660    7.8650   -0.5140 ca        1 MOL     -0.189187
     90 C32         5.0320    7.4790   -2.8350 ca        1 MOL     -0.189187
     91 C33         5.7070    8.1810   -1.8610 ca        1 MOL      0.298071
     92 O14         6.5400    9.2190   -2.2530 oh        1 MOL     -0.489929
     93 H37         4.9090    2.9640   -1.5380 hn        1 MOL      0.301280
     94 H38         4.7230    4.3380    1.0250 h1        1 MOL      0.049629
     95 H39         2.4780    5.1980   -0.0940 hc        1 MOL      0.022451
     96 H40         2.8660    4.4410   -1.5520 hc        1 MOL      0.022451
     97 H41         4.6700    6.5480    0.8780 ha        1 MOL      0.134870
     98 H42         3.5550    5.8770   -3.2180 ha        1 MOL      0.134870
     99 H43         6.0180    8.4270    0.2810 ha        1 MOL      0.144000
    100 H44         4.9950    7.8130   -3.8720 ha        1 MOL      0.144000
    101 H45         6.4830    9.4480   -3.1800 ho        1 MOL      0.360355
    102 N10         2.4890    3.5380    2.0010 n         1 MOL     -0.420959
    103 C34         1.5550    2.8320    2.8840 c3        1 MOL      0.356510
    104 C35         0.4200    2.0750    2.2780 c         1 MOL      0.261403
    105 O15         0.6610    1.3490    1.2850 o         1 MOL     -0.413702
    106 C36         2.2630    1.9440    3.9640 c3        1 MOL      0.105526
    107 C37         1.3750    1.5850    5.2290 c3        1 MOL     -0.280830
    108 C38         3.6420    2.5760    4.3670 c3        1 MOL     -0.163620
    109 C39         0.5910    2.6080    6.1130 c3        1 MOL     -0.181420
    110 H46         2.5820    4.5340    2.1530 hn        1 MOL      0.267570
    111 H47         1.0270    3.6420    3.3820 h1        1 MOL     -0.037279
    112 H48         2.4020    1.0530    3.3450 hc        1 MOL      0.012965
    113 H49         1.9320    0.9600    5.9240 hc        1 MOL      0.115622
    114 H50         0.5510    0.9420    4.9110 hc        1 MOL      0.115622
    115 H51         4.3790    2.4000    3.5800 hc        1 MOL      0.051686
    116 H52         3.4350    3.6380    4.4950 hc        1 MOL      0.051686
    117 H53         3.9700    2.1530    5.3220 hc        1 MOL      0.051686
    118 H54         1.3710    3.2130    6.5680 hc        1 MOL      0.050392
    119 H55        -0.0580    3.1620    5.4210 hc        1 MOL      0.050392
    120 H56        -0.0550    2.1220    6.8430 hc        1 MOL      0.050392
    121 N11        -0.7590    2.2600    2.8180 n         1 MOL     -0.445984
    122 C40        -1.9590    1.3950    2.5250 c3        1 MOL      0.088366
    123 C41        -3.0060    1.9590    1.4850 c         1 MOL      0.666200
    124 O16        -3.9280    1.1950    1.2040 o         1 MOL     -0.580464
    125 C42        -2.5500    0.8780    3.8240 c3        1 MOL      0.121608
    126 O17        -2.7220    2.0520    4.6210 oh        1 MOL     -0.640679
    127 H57        -0.8810    2.9460    3.5500 hn        1 MOL      0.323257
    128 H58        -1.5900    0.5140    2.0170 h1        1 MOL      0.079939
    129 H59        -1.8550    0.1700    4.2770 h1        1 MOL      0.054921
    130 H60        -3.5170    0.3980    3.6990 h1        1 MOL      0.054921
    131 H61        -3.0770    1.9380    5.5080 ho        1 MOL      0.425574
    132 N12        -2.7420    3.0940    0.8600 n         1 MOL     -0.651498
    133 C43        -3.5310    3.4830   -0.3570 c3        1 MOL      0.416971
    134 C44        -2.7260    2.8770   -1.5870 c         1 MOL      0.629698
    135 O18        -1.5430    3.2040   -1.8350 o         1 MOL     -0.611553
    136 C45        -3.6860    4.9910   -0.5050 c3        1 MOL     -0.375006
    137 H62        -2.0280    3.7850    1.0740 hn        1 MOL      0.327076
    138 H63        -4.5100    3.0080   -0.3080 h1        1 MOL     -0.011430
    139 H64        -4.2970    5.1990   -1.3860 hc        1 MOL      0.103779
    140 H65        -4.2730    5.3440    0.3400 hc        1 MOL      0.103779
    141 H66        -2.6690    5.3920   -0.5340 hc        1 MOL      0.103779
    142 N13        -3.3000    2.0230   -2.4620 n         1 MOL     -0.657110
    143 C46        -4.7190    1.5500   -2.4950 c3        1 MOL      0.146719
    144 C47        -5.7710    2.6420   -2.8440 c         1 MOL      0.562577
    145 O19        -5.5290    3.3880   -3.7960 o         1 MOL     -0.569450
    146 C48        -4.8570    0.3660   -3.4370 c3        1 MOL     -0.265468
    147 H67        -2.7580    1.8260   -3.2910 hn        1 MOL      0.359013
    148 H68        -4.9030    1.2310   -1.4640 h1        1 MOL      0.096484
    149 H69        -4.4730   -0.5350   -2.9630 hc        1 MOL      0.078801
    150 H70        -5.9080    0.1580   -3.6310 hc        1 MOL      0.078801
    151 H71        -4.2610    0.4940   -4.3420 hc        1 MOL      0.078801
    152 N14        -6.8740    2.8830   -2.0940 n         1 MOL     -0.400330
    153 C49        -7.2960    2.1300   -0.8660 c3        1 MOL     -0.410451
    154 C50        -8.0670    2.9830    0.1580 c         1 MOL      0.652836
    155 O20        -7.7070    2.9790    1.2930 o         1 MOL     -0.521745
    156 C51        -8.1890    0.9930   -1.3410 c3        1 MOL      0.006700
    157 C52        -8.6220    0.1850   -0.1230 c3        1 MOL     -0.169847
    158 C53        -9.0560   -1.1920   -0.5690 c         1 MOL      0.712656
    159 O21       -10.1900   -1.2770   -0.9960 o         1 MOL     -0.707504
    160 O22        -8.1980   -2.0820   -0.4650 o         1 MOL     -0.707504
    161 H72        -7.3490    3.7250   -2.3760 hn        1 MOL      0.255923
    162 H73        -6.4720    1.6700   -0.3190 h1        1 MOL      0.251126
    163 H74        -7.4950    0.3760   -1.9080 hc        1 MOL      0.028038
    164 H75        -9.0060    1.3770   -1.9530 hc        1 MOL      0.028038
    165 H76        -9.4130    0.7360    0.3830 hc        1 MOL      0.037220
    166 H77        -7.7210    0.2060    0.4990 hc        1 MOL      0.037220
    167 N15        -8.9710    3.8490   -0.3100 n         1 MOL     -0.320743
    168 C54        -9.7600    4.8740    0.4020 c3        1 MOL     -0.293180
    169 H78        -9.0860    5.5390    0.9420 h1        1 MOL      0.126784
    170 H79       -10.3400    5.4510   -0.3170 h1        1 MOL      0.126784
    171 H80       -10.4340    4.3890    1.1080 h1        1 MOL      0.126784
    172 H81        -9.2720    3.7670   -1.2750 hn        1 MOL      0.298161
    173 Ca1         2.0140   -0.2930   -0.4300 Ca        1 MOL      1.718715
    174 O23         3.5180    0.6150   -2.6640 oh        1 MOL     -0.845150
    175 H82         3.4410    1.3020   -3.3300 ho        1 MOL      0.411019
    176 H83         4.1100   -0.0310   -3.0530 ho        1 MOL      0.411019
    177 O24         1.0590    1.7470   -1.9190 oh        1 MOL     -0.845150
    178 H84         0.2070    2.1730   -1.8670 ho        1 MOL      0.411019
    179 H85         1.4160    1.9930   -2.7660 ho        1 MOL      0.411019
    180 O25        -0.8250   -0.5210   -0.9500 oh        1 MOL     -0.845150
    181 H86        -1.7790   -0.5420   -1.0230 ho        1 MOL      0.411019
    182 H87        -0.5150   -1.1990   -1.5540 ho        1 MOL      0.411019
@<TRIPOS>BOND
     1    1    2 1   
     2    1    4 1   
     3    1    5 1   
     4    1    6 1   
     5    2    3 2   
     6    2    7 1   
     7    7    8 1   
     8    7   15 1   
     9    8    9 1   
    10    8   11 1   
    11    8   16 1   
    12    9   10 2   
    13    9   19 1   
    14   11   12 1   
    15   11   17 1   
    16   11   18 1   
    17   12   13 1   
    18   12   14 1   
    19   19   20 1   
    20   19   28 1   
    21   20   21 1   
    22   20   23 1   
    23   20   29 1   
    24   21   22 2   
    25   21   41 1   
    26   23   24 1   
    27   23   30 1   
    28   23   31 1   
    29   24   25 1   
    30   24   32 1   
    31   24   33 1   
    32   25   26 1   
    33   25   34 1   
    34   25   35 1   
    35   26   27 1   
    36   26   36 1   
    37   26   37 1   
    38   27   38 1   
    39   27   39 1   
    40   27   40 1   
    41   41   42 1   
    42   41   49 1   
    43   42   43 1   
    44   42   45 1   
    45   42   50 1   
    46   43   44 2   
    47   43   53 1   
    48   45   46 1   
    49   45   51 1   
    50   45   52 1   
    51   46   47 1   
    52   46   48 1   
    53   53   54 1   
    54   53   57 1   
    55   54   55 1   
    56   54   58 1   
    57   54   59 1   
    58   55   56 2   
    59   55   60 1   
    60   60   61 1   
    61   60   68 1   
    62   61   62 1   
    63   61   64 1   
    64   61   69 1   
    65   62   63 2   
    66   62   74 1   
    67   64   65 1   
    68   64   70 1   
    69   64   71 1   
    70   65   66 1   
    71   65   67 2   
    72   66   72 1   
    73   66   73 1   
    74   74   75 1   
    75   74   78 1   
    76   75   76 1   
    77   75   79 1   
    78   75   80 1   
    79   76   77 2   
    80   76   81 1   
    81   81   82 1   
    82   81   93 1   
    83   82   83 1   
    84   82   85 1   
    85   82   94 1   
    86   83   84 2   
    87   83  102 1   
    88   85   86 1   
    89   85   95 1   
    90   85   96 1   
    91   86   87 ar  
    92   86   88 ar  
    93   87   89 ar  
    94   87   97 1   
    95   88   90 ar  
    96   88   98 1   
    97   89   91 ar  
    98   89   99 1   
    99   90   91 ar  
   100   90  100 1   
   101   91   92 1   
   102   92  101 1   
   103  102  103 1   
   104  102  110 1   
   105  103  104 1   
   106  103  106 1   
   107  103  111 1   
   108  104  105 2   
   109  104  121 1   
   110  106  107 1   
   111  106  108 1   
   112  106  112 1   
   113  107  109 1   
   114  107  113 1   
   115  107  114 1   
   116  108  115 1   
   117  108  116 1   
   118  108  117 1   
   119  109  118 1   
   120  109  119 1   
   121  109  120 1   
   122  121  122 1   
   123  121  127 1   
   124  122  123 1   
   125  122  125 1   
   126  122  128 1   
   127  123  124 2   
   128  123  132 1   
   129  125  126 1   
   130  125  129 1   
   131  125  130 1   
   132  126  131 1   
   133  132  133 1   
   134  132  137 1   
   135  133  134 1   
   136  133  136 1   
   137  133  138 1   
   138  134  135 2   
   139  134  142 1   
   140  136  139 1   
   141  136  140 1   
   142  136  141 1   
   143  142  143 1   
   144  142  147 1   
   145  143  144 1   
   146  143  146 1   
   147  143  148 1   
   148  144  145 2   
   149  144  152 1   
   150  146  149 1   
   151  146  150 1   
   152  146  151 1   
   153  152  153 1   
   154  152  161 1   
   155  153  154 1   
   156  153  156 1   
   157  153  162 1   
   158  154  155 2   
   159  154  167 1   
   160  156  157 1   
   161  156  163 1   
   162  156  164 1   
   163  157  158 1   
   164  157  165 1   
   165  157  166 1   
   166  158  159 1   
   167  158  160 1   
   168  167  168 1   
   169  167  172 1   
   170  168  169 1   
   171  168  170 1   
   172  168  171 1   
   173  174  175 1   
   174  174  176 1   
   175  177  178 1   
   176  177  179 1   
   177  180  181 1   
   178  180  182 1   
@<TRIPOS>SUBSTRUCTURE
     1 MOL         1 TEMP              0 ****  ****    0 ROOT
