@<TRIPOS>MOLECULE
MOL
  195   189     1     0     0
SMALL
resp


@<TRIPOS>ATOM
      1 C1         -3.8590    5.6590    1.6950 c3        1 MOL     -0.335996
      2 C2         -5.3880    5.7070    1.3050 c         1 MOL      0.685476
      3 O1         -5.6880    6.2910    0.2580 o         1 MOL     -0.553260
      4 H1         -3.7170    6.1360    2.6650 hc        1 MOL      0.077215
      5 H2         -3.5290    4.6220    1.7490 hc        1 MOL      0.077215
      6 H3         -3.2750    6.1880    0.9420 hc        1 MOL      0.077215
      7 N1         -6.1750    5.0870    2.1500 n         1 MOL     -0.640236
      8 C3         -7.6350    4.7670    1.9660 c3        1 MOL      0.329626
      9 C4         -7.8610    3.8020    0.7280 c         1 MOL      0.455839
     10 O2         -7.0560    3.6700   -0.2270 o         1 MOL     -0.484964
     11 C5         -8.5050    6.0540    1.8250 c3        1 MOL     -0.322676
     12 C6        -10.0390    5.8030    1.9460 c         1 MOL      0.764870
     13 O3        -10.8200    6.4200    1.1900 o         1 MOL     -0.734909
     14 O4        -10.4330    4.9640    2.7620 o         1 MOL     -0.734909
     15 H4         -5.7160    4.5250    2.8430 hn        1 MOL      0.320814
     16 H5         -7.9140    4.1930    2.8530 h1        1 MOL     -0.006212
     17 H6         -8.2650    6.5180    0.8610 hc        1 MOL      0.074999
     18 H7         -8.2940    6.7620    2.6170 hc        1 MOL      0.074999
     19 N2         -8.8950    2.9900    0.9690 n         1 MOL     -0.548894
     20 C7         -9.3510    1.8850    0.1270 c3        1 MOL      0.011862
     21 C8         -8.4360    0.7030   -0.1840 c         1 MOL      0.630743
     22 O5         -8.8300   -0.4060   -0.5190 o         1 MOL     -0.603062
     23 C9         -9.8750    2.4250   -1.2380 c3        1 MOL     -0.245956
     24 C10       -10.7250    3.7020   -1.1920 c3        1 MOL      0.237899
     25 C11       -11.3000    4.0440   -2.5350 c3        1 MOL     -0.326072
     26 C12       -11.7340    5.5320   -2.5850 c3        1 MOL      0.229622
     27 N3        -13.1750    5.7600   -2.5460 n4        1 MOL     -0.570940
     28 H8         -9.3690    3.0190    1.8680 hn        1 MOL      0.341207
     29 H9        -10.2400    1.4750    0.6090 h1        1 MOL      0.096120
     30 H10       -10.4920    1.6130   -1.6160 hc        1 MOL      0.077114
     31 H11        -9.0250    2.5790   -1.8970 hc        1 MOL      0.077114
     32 H12       -10.0170    4.4790   -0.9010 hc        1 MOL      0.016249
     33 H13       -11.4750    3.6150   -0.4040 hc        1 MOL      0.016249
     34 H14       -12.1200    3.3550   -2.7490 hc        1 MOL      0.095583
     35 H15       -10.4450    3.9010   -3.2060 hc        1 MOL      0.095583
     36 H16       -11.3150    6.0290   -3.4680 hx        1 MOL      0.054306
     37 H17       -11.3310    6.0580   -1.7180 hx        1 MOL      0.054306
     38 H18       -13.3120    6.7320   -2.3290 hn        1 MOL      0.374067
     39 H19       -13.6090    5.5790   -3.4410 hn        1 MOL      0.374067
     40 H20       -13.6550    5.2900   -1.8000 hn        1 MOL      0.374067
     41 N4         -7.1420    0.8410   -0.0000 n         1 MOL     -0.516527
     42 C13        -6.2530   -0.3120   -0.1560 c3        1 MOL      0.155682
     43 C14        -6.4390   -1.4440    0.9620 c         1 MOL      0.531940
     44 O6         -6.2760   -1.1760    2.1440 o         1 MOL     -0.572126
     45 C15        -4.7840    0.1510    0.0180 c3        1 MOL     -0.234929
     46 C16        -3.7270   -0.7650   -0.5870 c         1 MOL      0.763300
     47 O7         -4.1050   -1.7100   -1.2600 o         1 MOL     -0.761560
     48 O8         -2.5580   -0.3540   -0.6250 o         1 MOL     -0.761560
     49 H21        -6.8470    1.7030    0.4330 hn        1 MOL      0.299918
     50 H22        -6.3560   -0.7380   -1.1560 h1        1 MOL      0.111873
     51 H23        -4.4740    0.2670    1.0530 hc        1 MOL      0.071631
     52 H24        -4.6380    1.1750   -0.3340 hc        1 MOL      0.071631
     53 N5         -6.7680   -2.6700    0.5070 n         1 MOL     -0.381012
     54 C17        -7.2690   -3.1350   -0.8020 c3        1 MOL      0.027854
     55 C18        -6.5850   -4.3740   -1.2810 c         1 MOL      0.548554
     56 O9         -7.3220   -5.3570   -1.4210 o         1 MOL     -0.562392
     57 H25        -6.7370   -3.4170    1.1930 hn        1 MOL      0.261004
     58 H26        -7.2760   -2.4110   -1.6140 h1        1 MOL      0.059154
     59 H27        -8.3290   -3.3110   -0.6290 h1        1 MOL      0.059154
     60 N6         -5.2150   -4.3320   -1.3610 n         1 MOL     -0.399126
     61 C19        -4.3720   -5.5320   -1.6460 c3        1 MOL     -0.022721
     62 C20        -2.9560   -5.4170   -0.9940 c         1 MOL      0.397431
     63 O10        -2.3800   -4.3350   -1.0610 o         1 MOL     -0.441379
     64 C21        -4.3370   -5.7890   -3.1300 c3        1 MOL     -0.037658
     65 C22        -3.5760   -4.8820   -4.0670 c         1 MOL      0.636527
     66 O11        -2.8480   -3.9300   -3.6550 o         1 MOL     -0.701545
     67 O12        -3.5780   -5.1330   -5.3010 o         1 MOL     -0.701545
     68 H28        -4.8080   -3.4060   -1.3000 hn        1 MOL      0.230395
     69 H29        -4.7820   -6.4480   -1.2250 h1        1 MOL      0.040644
     70 H30        -5.3640   -5.8120   -3.4720 hc        1 MOL      0.031401
     71 H31        -4.0080   -6.8270   -3.2390 hc        1 MOL      0.031401
     72 N7         -2.4320   -6.5570   -0.4850 n         1 MOL     -0.276956
     73 C23        -1.1910   -6.8400    0.1010 c3        1 MOL     -0.282265
     74 C24        -0.7600   -5.9840    1.2830 c         1 MOL      0.580801
     75 O13         0.1700   -6.3960    1.9220 o         1 MOL     -0.571691
     76 H32        -2.9830   -7.3910   -0.5880 hn        1 MOL      0.288310
     77 H33        -0.4390   -6.7950   -0.6800 h1        1 MOL      0.138558
     78 H34        -1.1190   -7.8390    0.5250 h1        1 MOL      0.138558
     79 N8         -1.4130   -4.8760    1.5840 n         1 MOL     -0.345528
     80 C25        -0.9510   -3.8250    2.5220 c3        1 MOL      0.067863
     81 C26        -0.4980   -2.5650    1.7420 c         1 MOL      0.192542
     82 O14        -0.9340   -2.3080    0.5800 o         1 MOL     -0.474577
     83 C27        -1.9900   -3.3730    3.5720 c3        1 MOL      0.412512
     84 C28        -3.2470   -2.7880    2.8670 c3        1 MOL     -0.177911
     85 O15        -2.3250   -4.5690    4.2350 oh        1 MOL     -0.645322
     86 H35        -2.1340   -4.6640    0.9100 hn        1 MOL      0.214012
     87 H36        -0.1240   -4.1380    3.1600 h1        1 MOL      0.020929
     88 H37        -1.5910   -2.5960    4.2230 h1        1 MOL     -0.057389
     89 H38        -1.6020   -5.0030    4.6810 ho        1 MOL      0.407632
     90 H39        -3.9060   -2.6650    3.7250 hc        1 MOL      0.059948
     91 H40        -3.1050   -1.8170    2.3930 hc        1 MOL      0.059948
     92 H41        -3.6190   -3.5360    2.1610 hc        1 MOL      0.059948
     93 N9          0.3710   -1.7490    2.4090 n         1 MOL     -0.046246
     94 C29         0.7450   -0.3910    2.0410 c3        1 MOL     -0.026713
     95 C30         2.1110   -0.3700    1.4580 c         1 MOL      0.484486
     96 O16         2.4990    0.6360    0.9170 o         1 MOL     -0.531993
     97 C31         0.4870    0.6540    3.1530 c3        1 MOL      0.139880
     98 C32         1.2720    0.3700    4.4330 c3        1 MOL      0.195284
     99 C33        -1.0960    0.7050    3.4860 c3        1 MOL     -0.222693
    100 C34         1.1180    1.5110    5.4260 c3        1 MOL     -0.378996
    101 H42         0.7230   -2.1390    3.2740 hn        1 MOL      0.179499
    102 H43         0.1020   -0.2200    1.1650 h1        1 MOL      0.068391
    103 H44         0.7110    1.6260    2.7260 hc        1 MOL      0.009745
    104 H45         2.3220    0.2130    4.1620 hc        1 MOL     -0.046753
    105 H46         0.9270   -0.5740    4.8450 hc        1 MOL     -0.046753
    106 H47        -1.6200    0.7710    2.5350 hc        1 MOL      0.058338
    107 H48        -1.4530   -0.1460    4.0610 hc        1 MOL      0.058338
    108 H49        -1.4200    1.5830    4.0450 hc        1 MOL      0.058338
    109 H50         0.0710    1.5970    5.7450 hc        1 MOL      0.096019
    110 H51         1.8670    1.4640    6.2150 hc        1 MOL      0.096019
    111 H52         1.3960    2.4250    4.9090 hc        1 MOL      0.096019
    112 N10         2.9270   -1.4200    1.6320 n         1 MOL     -0.409979
    113 C35         4.1020   -1.6360    0.7560 c3        1 MOL      0.099236
    114 C36         5.3090   -2.0160    1.5560 c         1 MOL      0.593962
    115 O17         5.2260   -2.7420    2.5640 o         1 MOL     -0.527142
    116 C37         3.9980   -2.6470   -0.3840 c3        1 MOL      0.319745
    117 C38         3.5740   -4.0150    0.0030 c3        1 MOL     -0.382544
    118 O18         3.1710   -2.1090   -1.3520 oh        1 MOL     -0.624047
    119 H53         2.6540   -2.1190    2.3110 hn        1 MOL      0.195881
    120 H54         4.3800   -0.7220    0.2390 h1        1 MOL      0.038396
    121 H55         5.0070   -2.7250   -0.8060 h1        1 MOL     -0.008809
    122 H56         3.6020   -2.2360   -2.1960 ho        1 MOL      0.409308
    123 H57         2.5900   -3.9430    0.4570 hc        1 MOL      0.106143
    124 H58         3.4090   -4.6200   -0.8890 hc        1 MOL      0.106143
    125 H59         4.3000   -4.4840    0.6820 hc        1 MOL      0.106143
    126 N11         6.4590   -1.6190    1.0340 n         1 MOL     -0.562070
    127 C39         7.7240   -1.7600    1.8040 c3        1 MOL     -0.124250
    128 C40         8.8280   -0.6640    1.6480 c         1 MOL      0.644816
    129 O19         9.5380   -0.3550    2.6370 o         1 MOL     -0.553752
    130 C41         8.3060   -3.1200    1.5370 c3        1 MOL      0.437322
    131 C42         9.4340   -3.4590    2.5380 c3        1 MOL     -0.400649
    132 O20         8.7540   -3.1500    0.2120 oh        1 MOL     -0.628419
    133 H60         6.5270   -1.1510    0.1510 hn        1 MOL      0.316507
    134 H61         7.4810   -1.6680    2.8620 h1        1 MOL      0.124456
    135 H62         7.5430   -3.9030    1.6340 h1        1 MOL      0.003200
    136 H63         8.0340   -3.3570   -0.3880 ho        1 MOL      0.372250
    137 H64         9.0290   -3.2910    3.5310 hc        1 MOL      0.110016
    138 H65         9.7650   -4.4660    2.2910 hc        1 MOL      0.110016
    139 H66        10.2560   -2.7830    2.3290 hc        1 MOL      0.110016
    140 N12         8.8500   -0.1040    0.4530 n         1 MOL     -0.407124
    141 C43         9.6120    1.1370    0.0780 c3        1 MOL     -0.150680
    142 C44         8.8350    2.0420   -0.8430 c         1 MOL      0.580927
    143 O21         8.4590    1.5210   -1.9150 o         1 MOL     -0.554585
    144 C45        10.9610    0.7150   -0.5690 c3        1 MOL      0.101769
    145 C46        12.0470    1.8300   -0.5040 c3        1 MOL     -0.021310
    146 C47        13.3450    1.6120   -1.2750 c3        1 MOL      0.058490
    147 C48        14.0270    0.3340   -0.7570 c3        1 MOL      0.014230
    148 N13        15.3730    0.1780   -1.2910 n4        1 MOL     -0.324317
    149 H67         8.1700   -0.3250   -0.2560 hn        1 MOL      0.249136
    150 H68         9.9240    1.5580    1.0330 h1        1 MOL      0.098885
    151 H69        10.9000    0.3560   -1.5970 hc        1 MOL     -0.003830
    152 H70        11.3490   -0.1610   -0.0430 hc        1 MOL     -0.003830
    153 H71        12.2400    2.0020    0.5620 hc        1 MOL      0.002354
    154 H72        11.5090    2.7000   -0.8710 hc        1 MOL      0.002354
    155 H73        13.9910    2.4430   -0.9940 hc        1 MOL      0.023633
    156 H74        13.2460    1.6820   -2.3570 hc        1 MOL      0.023633
    157 H75        13.4580   -0.4860   -1.2030 hx        1 MOL      0.086505
    158 H76        14.0500    0.3380    0.3300 hx        1 MOL      0.086505
    159 H77        15.3730    0.2150   -2.3010 hn        1 MOL      0.286200
    160 H78        15.9520    0.9210   -0.9230 hn        1 MOL      0.286200
    161 H79        15.7790   -0.7150   -1.0460 hn        1 MOL      0.286200
    162 N14         8.7060    3.2830   -0.6340 n         1 MOL     -0.514682
    163 C49         8.0150    4.1640   -1.5630 c3        1 MOL      0.394658
    164 C50         6.4850    4.3010   -1.3290 c         1 MOL      0.259842
    165 O22         5.8530    4.1900   -2.4260 o         1 MOL     -0.530603
    166 C51         8.7260    5.5280   -1.5220 c3        1 MOL      0.002072
    167 C52        10.2510    5.4560   -1.9780 c3        1 MOL     -0.254561
    168 C53        10.7140    6.9190   -1.9350 c         1 MOL      0.677564
    169 O23        11.0490    7.4520   -0.8780 o         1 MOL     -0.663636
    170 O24        10.7940    7.4320   -3.0910 o         1 MOL     -0.663636
    171 H80         9.2470    3.6130    0.1530 hn        1 MOL      0.301369
    172 H81         8.1240    3.7610   -2.5770 h1        1 MOL      0.031119
    173 H82         8.7590    5.9670   -0.5230 hc        1 MOL      0.030355
    174 H83         8.1680    6.1860   -2.1950 hc        1 MOL      0.030355
    175 H84        10.2360    5.1300   -3.0210 hc        1 MOL      0.043108
    176 H85        10.8450    4.8530   -1.2930 hc        1 MOL      0.043108
    177 N15         5.7740    4.4420   -0.2130 n         1 MOL     -0.294646
    178 C54         6.3660    4.8010    1.0940 c3        1 MOL     -0.068168
    179 H86         5.9180    5.7280    1.4520 h1        1 MOL      0.053829
    180 H87         6.1740    4.0040    1.8120 h1        1 MOL      0.053829
    181 H88         7.4420    4.9380    0.9810 h1        1 MOL      0.053829
    182 H89         4.7710    4.3710   -0.2600 hn        1 MOL      0.308013
    183 Ca1        -1.4490   -2.1320   -2.0990 Ca        1 MOL      1.802864
    184 O25        -0.1270   -2.5600   -4.3580 oh        1 MOL     -0.864907
    185 H90        -0.3270   -3.2710   -4.9690 ho        1 MOL      0.423564
    186 H91         0.2270   -1.8680   -4.9210 ho        1 MOL      0.423564
    187 O26         0.9160   -0.6160   -1.9110 oh        1 MOL     -0.864907
    188 H92         1.7540   -0.9720   -1.6200 ho        1 MOL      0.423564
    189 H93         1.0250    0.3340   -1.8620 ho        1 MOL      0.423564
    190 O27         0.7900   -3.6600   -1.6990 oh        1 MOL     -0.864907
    191 H94         1.5260   -3.1120   -1.4220 ho        1 MOL      0.423564
    192 H95         1.1800   -4.5160   -1.8660 ho        1 MOL      0.423564
    193 O28        -2.4410   -0.5550   -3.9970 oh        1 MOL     -0.864907
    194 H96        -3.3750   -0.6040   -4.2010 ho        1 MOL      0.423564
    195 H97        -2.1200    0.1620   -4.5430 ho        1 MOL      0.423564
@<TRIPOS>BOND
     1    1    2 1   
     2    1    4 1   
     3    1    5 1   
     4    1    6 1   
     5    2    3 2   
     6    2    7 1   
     7    7    8 1   
     8    7   15 1   
     9    8    9 1   
    10    8   11 1   
    11    8   16 1   
    12    9   10 2   
    13    9   19 1   
    14   11   12 1   
    15   11   17 1   
    16   11   18 1   
    17   12   13 1   
    18   12   14 1   
    19   19   20 1   
    20   19   28 1   
    21   20   21 1   
    22   20   23 1   
    23   20   29 1   
    24   21   22 2   
    25   21   41 1   
    26   23   24 1   
    27   23   30 1   
    28   23   31 1   
    29   24   25 1   
    30   24   32 1   
    31   24   33 1   
    32   25   26 1   
    33   25   34 1   
    34   25   35 1   
    35   26   27 1   
    36   26   36 1   
    37   26   37 1   
    38   27   38 1   
    39   27   39 1   
    40   27   40 1   
    41   41   42 1   
    42   41   49 1   
    43   42   43 1   
    44   42   45 1   
    45   42   50 1   
    46   43   44 2   
    47   43   53 1   
    48   45   46 1   
    49   45   51 1   
    50   45   52 1   
    51   46   47 1   
    52   46   48 1   
    53   53   54 1   
    54   53   57 1   
    55   54   55 1   
    56   54   58 1   
    57   54   59 1   
    58   55   56 2   
    59   55   60 1   
    60   60   61 1   
    61   60   68 1   
    62   61   62 1   
    63   61   64 1   
    64   61   69 1   
    65   62   63 2   
    66   62   72 1   
    67   64   65 1   
    68   64   70 1   
    69   64   71 1   
    70   65   66 1   
    71   65   67 1   
    72   72   73 1   
    73   72   76 1   
    74   73   74 1   
    75   73   77 1   
    76   73   78 1   
    77   74   75 2   
    78   74   79 1   
    79   79   80 1   
    80   79   86 1   
    81   80   81 1   
    82   80   83 1   
    83   80   87 1   
    84   81   82 2   
    85   81   93 1   
    86   83   84 1   
    87   83   85 1   
    88   83   88 1   
    89   84   90 1   
    90   84   91 1   
    91   84   92 1   
    92   85   89 1   
    93   93   94 1   
    94   93  101 1   
    95   94   95 1   
    96   94   97 1   
    97   94  102 1   
    98   95   96 2   
    99   95  112 1   
   100   97   98 1   
   101   97   99 1   
   102   97  103 1   
   103   98  100 1   
   104   98  104 1   
   105   98  105 1   
   106   99  106 1   
   107   99  107 1   
   108   99  108 1   
   109  100  109 1   
   110  100  110 1   
   111  100  111 1   
   112  112  113 1   
   113  112  119 1   
   114  113  114 1   
   115  113  116 1   
   116  113  120 1   
   117  114  115 2   
   118  114  126 1   
   119  116  117 1   
   120  116  118 1   
   121  116  121 1   
   122  117  123 1   
   123  117  124 1   
   124  117  125 1   
   125  118  122 1   
   126  126  127 1   
   127  126  133 1   
   128  127  128 1   
   129  127  130 1   
   130  127  134 1   
   131  128  129 2   
   132  128  140 1   
   133  130  131 1   
   134  130  132 1   
   135  130  135 1   
   136  131  137 1   
   137  131  138 1   
   138  131  139 1   
   139  132  136 1   
   140  140  141 1   
   141  140  149 1   
   142  141  142 1   
   143  141  144 1   
   144  141  150 1   
   145  142  143 2   
   146  142  162 1   
   147  144  145 1   
   148  144  151 1   
   149  144  152 1   
   150  145  146 1   
   151  145  153 1   
   152  145  154 1   
   153  146  147 1   
   154  146  155 1   
   155  146  156 1   
   156  147  148 1   
   157  147  157 1   
   158  147  158 1   
   159  148  159 1   
   160  148  160 1   
   161  148  161 1   
   162  162  163 1   
   163  162  171 1   
   164  163  164 1   
   165  163  166 1   
   166  163  172 1   
   167  164  165 2   
   168  164  177 1   
   169  166  167 1   
   170  166  173 1   
   171  166  174 1   
   172  167  168 1   
   173  167  175 1   
   174  167  176 1   
   175  168  169 1   
   176  168  170 1   
   177  177  178 1   
   178  177  182 1   
   179  178  179 1   
   180  178  180 1   
   181  178  181 1   
   182  184  185 1   
   183  184  186 1   
   184  187  188 1   
   185  187  189 1   
   186  190  191 1   
   187  190  192 1   
   188  193  194 1   
   189  193  195 1   
@<TRIPOS>SUBSTRUCTURE
     1 MOL         1 TEMP              0 ****  ****    0 ROOT
