@<TRIPOS>MOLECULE
MOL
  178   175     1     0     0
SMALL
resp


@<TRIPOS>ATOM
      1 C1          1.4500   -1.2430    5.6540 c3        1 MOL     -0.236520
      2 C2          2.5370   -0.9890    4.6000 c         1 MOL      0.658650
      3 O1          2.3070   -0.2280    3.6410 o         1 MOL     -0.546802
      4 H1          1.9080   -1.2920    6.6420 hc        1 MOL      0.053990
      5 H2          0.7230   -0.4310    5.6310 hc        1 MOL      0.053990
      6 H3          0.9480   -2.1860    5.4380 hc        1 MOL      0.053990
      7 N1          3.7080   -1.6790    4.7200 n         1 MOL     -0.570956
      8 C3          4.9530   -1.1980    3.9930 c3        1 MOL      0.131142
      9 C4          5.2200   -1.8870    2.6630 c         1 MOL      0.446217
     10 O2          5.9530   -1.2940    1.8540 o         1 MOL     -0.524577
     11 C5          6.0850   -1.4380    4.9540 c3        1 MOL     -0.011075
     12 C6          7.4700   -1.1610    4.4710 c         1 MOL      0.717296
     13 O3          7.7830    0.0110    4.0750 o         1 MOL     -0.734652
     14 O4          8.2930   -2.1060    4.5680 o         1 MOL     -0.734652
     15 H4          3.7980   -2.3420    5.4770 hn        1 MOL      0.297246
     16 H5          4.9570   -0.1150    3.8530 h1        1 MOL      0.078868
     17 H6          6.0430   -2.4790    5.2920 hc        1 MOL     -0.054788
     18 H7          5.9660   -0.7780    5.8090 hc        1 MOL     -0.054788
     19 N2          4.5390   -3.0180    2.4070 n         1 MOL     -0.382155
     20 C7          4.7020   -3.8930    1.2480 c3        1 MOL      0.290506
     21 C8          4.4830   -3.2190   -0.0430 c         1 MOL      0.597025
     22 O5          3.3790   -3.2070   -0.4900 o         1 MOL     -0.670071
     23 C9          5.8870   -4.7940    1.2740 c3        1 MOL     -0.423077
     24 H8          3.8300   -3.2150    3.0960 hn        1 MOL      0.237494
     25 H9          3.8260   -4.5170    1.3980 h1        1 MOL      0.047985
     26 H10         5.6870   -5.5970    1.9940 hc        1 MOL      0.099519
     27 H11         6.0170   -5.2100    0.2740 hc        1 MOL      0.099519
     28 H12         6.8220   -4.3120    1.5590 hc        1 MOL      0.099519
     29 N3          5.5180   -2.6360   -0.6430 n         1 MOL     -0.434558
     30 C10         5.4940   -1.9560   -1.9470 c3        1 MOL      0.263461
     31 C11         5.8740   -0.4690   -1.8160 c         1 MOL      0.476421
     32 O6          6.4730    0.1400   -2.7500 o         1 MOL     -0.480809
     33 C12         6.3270   -2.6680   -2.9770 c3        1 MOL     -0.429656
     34 C13         6.1280   -2.1660   -4.3800 c         1 MOL      0.702330
     35 O7          7.0770   -2.1640   -5.2950 o         1 MOL     -0.688663
     36 O8          4.9650   -1.8620   -4.7070 o         1 MOL     -0.688663
     37 H13         6.4470   -2.7670   -0.2510 hn        1 MOL      0.262310
     38 H14         4.4680   -1.8820   -2.3000 h1        1 MOL     -0.087280
     39 H15         6.1220   -3.7340   -2.9920 hc        1 MOL      0.094334
     40 H16         7.3580   -2.5660   -2.6320 hc        1 MOL      0.094334
     41 N4          5.7210    0.1070   -0.6230 n         1 MOL     -0.315802
     42 C14         6.0880    1.4720   -0.2690 c3        1 MOL     -0.006830
     43 C15         5.1550    2.4220   -0.8760 c         1 MOL      0.540413
     44 O9          5.4350    3.5110   -1.4580 o         1 MOL     -0.557918
     45 H17         5.2890   -0.4320    0.0990 hn        1 MOL      0.280129
     46 H18         7.0470    1.7930   -0.6790 h1        1 MOL      0.062049
     47 H19         6.0840    1.5790    0.8150 h1        1 MOL      0.062049
     48 N5          3.8720    2.0320   -1.0120 n         1 MOL     -0.415332
     49 C16         3.0430    2.5800   -2.0500 c3        1 MOL     -0.099530
     50 C17         2.5170    3.8820   -1.6200 c         1 MOL      0.612451
     51 O10         2.4330    4.2150   -0.4530 o         1 MOL     -0.491607
     52 C18         2.0340    1.4430   -2.4370 c3        1 MOL     -0.277442
     53 C19         2.6760    0.2210   -2.9640 c         1 MOL      0.575693
     54 N6          3.6290    0.4300   -3.8690 n         1 MOL     -0.710155
     55 O11         2.3210   -0.8880   -2.6750 o         1 MOL     -0.484274
     56 H20         3.5530    1.2290   -0.4930 hn        1 MOL      0.283727
     57 H21         3.6610    2.8500   -2.9020 h1        1 MOL      0.079892
     58 H22         1.2670    1.8890   -3.0810 hc        1 MOL      0.133189
     59 H23         1.5220    1.2790   -1.4930 hc        1 MOL      0.133189
     60 H24         3.8130    1.3250   -4.3010 hn        1 MOL      0.351584
     61 H25         4.1740   -0.3970   -4.0570 hn        1 MOL      0.351584
     62 N7          2.1720    4.7580   -2.6360 n         1 MOL     -0.393374
     63 C20         1.9230    6.1860   -2.3910 c3        1 MOL     -0.262651
     64 C21         0.5140    6.3730   -1.9210 c         1 MOL      0.580296
     65 O12        -0.3920    5.6630   -2.3880 o         1 MOL     -0.529165
     66 H26         2.2970    4.5150   -3.6160 hn        1 MOL      0.286978
     67 H27         2.0960    6.7470   -3.3120 h1        1 MOL      0.122943
     68 H28         2.6390    6.4910   -1.6220 h1        1 MOL      0.122943
     69 N8          0.3720    7.2090   -0.9620 n         1 MOL     -0.369207
     70 C22        -0.8160    7.6900   -0.3530 c3        1 MOL     -0.235951
     71 C23        -1.6560    6.6890    0.4240 c         1 MOL      0.430864
     72 O13        -2.7970    6.9820    0.7900 o         1 MOL     -0.577132
     73 C24        -0.5710    8.9950    0.4030 c3        1 MOL      0.450443
     74 C25         0.0100    8.7420    1.7970 c3        1 MOL     -0.245529
     75 O14         0.1790    9.9150   -0.3390 oh        1 MOL     -0.612240
     76 H29         1.2010    7.7500   -0.7190 hn        1 MOL      0.224152
     77 H30        -1.4580    8.0560   -1.1580 h1        1 MOL      0.142059
     78 H31        -1.5520    9.4390    0.6040 h1        1 MOL      0.026707
     79 H32         1.0590    9.5240   -0.3420 ho        1 MOL      0.372861
     80 H33         0.4050    9.6360    2.2800 hc        1 MOL      0.051738
     81 H34        -0.7120    8.3330    2.4900 hc        1 MOL      0.051738
     82 H35         0.8960    8.1180    1.6810 hc        1 MOL      0.051738
     83 N9         -1.1780    5.4850    0.5580 n         1 MOL      0.010679
     84 C26        -1.8800    4.3010    1.0170 c3        1 MOL     -0.166172
     85 C27        -1.5770    3.0550    0.1590 c         1 MOL      0.486939
     86 O15        -0.7810    3.0940   -0.8000 o         1 MOL     -0.450144
     87 C28        -1.7040    4.0060    2.5760 c3        1 MOL     -0.044541
     88 C29        -0.3610    3.3020    2.9260 c3        1 MOL     -0.070340
     89 C30        -2.0120    5.3330    3.3080 c3        1 MOL     -0.034099
     90 C31        -0.0410    3.0110    4.4450 c3        1 MOL     -0.204420
     91 H36        -0.1980    5.4200    0.3010 hn        1 MOL      0.138392
     92 H37        -2.9330    4.4650    0.7850 h1        1 MOL      0.119832
     93 H38        -2.5050    3.3710    2.9660 hc        1 MOL      0.037705
     94 H39         0.5070    3.8170    2.5020 hc        1 MOL      0.103162
     95 H40        -0.4040    2.2960    2.5130 hc        1 MOL      0.103162
     96 H41        -3.0480    5.6440    3.1460 hc        1 MOL      0.015367
     97 H42        -1.9950    5.1290    4.3770 hc        1 MOL      0.015367
     98 H43        -1.2370    6.0570    3.0610 hc        1 MOL      0.015367
     99 H44         0.1620    3.9720    4.9180 hc        1 MOL      0.049590
    100 H45        -0.9620    2.6480    4.9000 hc        1 MOL      0.049590
    101 H46         0.8330    2.3700    4.4230 hc        1 MOL      0.049590
    102 N10        -2.2050    1.9230    0.4400 n         1 MOL     -0.548573
    103 C32        -2.1240    0.7180   -0.3920 c3        1 MOL      0.102896
    104 C33        -3.5030    0.0590   -0.7840 c         1 MOL      0.478976
    105 O16        -3.5540   -1.1040   -1.2140 o         1 MOL     -0.492093
    106 C34        -1.1420   -0.1830    0.3650 c3        1 MOL      0.192754
    107 C35        -0.2420   -1.0160   -0.5410 c         1 MOL      0.396198
    108 O17         0.7820   -1.5560   -0.0410 o         1 MOL     -0.676082
    109 O18        -0.5700   -1.3200   -1.7460 o         1 MOL     -0.676082
    110 H47        -2.9960    1.8190    1.0570 hn        1 MOL      0.267871
    111 H48        -1.6870    1.0570   -1.3320 h1        1 MOL      0.060684
    112 H49        -1.6280   -0.7530    1.1570 hc        1 MOL     -0.018630
    113 H50        -0.4470    0.4640    0.9080 hc        1 MOL     -0.018630
    114 N11        -4.6060    0.7620   -0.6110 n         1 MOL     -0.400462
    115 C36        -5.8740    0.1890   -0.9730 c3        1 MOL      0.250023
    116 C37        -6.2790   -1.0020    0.0170 c         1 MOL      0.176225
    117 O19        -6.0280   -0.8220    1.2300 o         1 MOL     -0.452087
    118 C38        -6.9240    1.3600   -0.8820 c3        1 MOL     -0.316376
    119 C39        -8.2670    0.6910   -1.3340 ca        1 MOL      0.112889
    120 C40        -8.6020    0.5150   -2.7000 ca        1 MOL     -0.186823
    121 C41        -9.1540    0.2110   -0.3570 ca        1 MOL     -0.186823
    122 C42        -9.6810   -0.2710   -3.0910 ca        1 MOL     -0.121305
    123 C43       -10.3440   -0.5710   -0.7180 ca        1 MOL     -0.121305
    124 C44       -10.5860   -0.7450   -2.1020 ca        1 MOL     -0.090417
    125 H51        -4.6240    1.6860   -0.2010 hn        1 MOL      0.252641
    126 H52        -5.8660   -0.1340   -2.0140 h1        1 MOL      0.005835
    127 H53        -6.6240    2.1840   -1.5280 hc        1 MOL      0.125207
    128 H54        -7.0110    1.6810    0.1570 hc        1 MOL      0.125207
    129 H55        -7.9770    0.8390   -3.5160 ha        1 MOL      0.137865
    130 H56        -8.9730    0.4420    0.6830 ha        1 MOL      0.137865
    131 H57        -9.8000   -0.5250   -4.1350 ha        1 MOL      0.121831
    132 H58       -11.0680   -0.9160    0.0100 ha        1 MOL      0.121831
    133 H59       -11.4650   -1.2600   -2.4550 ha        1 MOL      0.088572
    134 N12        -6.5490   -2.2490   -0.4410 n         1 MOL      0.090659
    135 C45        -6.8850   -3.4570    0.3730 c3        1 MOL      0.144029
    136 C46        -6.0000   -3.8410    1.5320 c         1 MOL      0.119380
    137 O20        -6.5200   -4.3140    2.6230 o         1 MOL     -0.505870
    138 C47        -6.9460   -4.6670   -0.5540 c3        1 MOL      0.055919
    139 C48        -7.4160   -4.1010   -1.8460 c3        1 MOL     -0.231404
    140 C49        -6.7940   -2.6770   -1.8000 c3        1 MOL     -0.000627
    141 H60        -7.8820   -3.2220    0.7630 h1        1 MOL      0.022555
    142 H61        -5.9300   -5.0450   -0.6870 hc        1 MOL      0.024700
    143 H62        -7.5620   -5.4670   -0.1280 hc        1 MOL      0.024700
    144 H63        -6.9260   -4.5770   -2.7030 hc        1 MOL      0.067211
    145 H64        -8.4960   -4.0130   -1.9340 hc        1 MOL      0.067211
    146 H65        -5.8240   -2.6850   -2.3020 h1        1 MOL      0.036344
    147 H66        -7.4970   -1.9570   -2.2060 h1        1 MOL      0.036344
    148 N13        -4.7210   -3.5970    1.3850 n         1 MOL      0.003453
    149 C50        -3.6210   -3.7560    2.4040 c3        1 MOL     -0.225192
    150 C51        -3.6170   -2.6470    3.4880 c         1 MOL      0.481607
    151 O21        -3.1420   -2.9160    4.5550 o         1 MOL     -0.545316
    152 C52        -2.1970   -3.8240    1.7330 c3        1 MOL      0.134585
    153 C53        -1.9760   -4.9610    0.6650 c3        1 MOL     -0.271295
    154 C54        -0.7550   -4.6620   -0.2570 c         1 MOL      0.712508
    155 O22        -0.9310   -4.3390   -1.4470 o         1 MOL     -0.737712
    156 O23         0.4370   -4.6070    0.1850 o         1 MOL     -0.737712
    157 H67        -4.4810   -3.2010    0.4930 hn        1 MOL      0.186831
    158 H68        -3.8140   -4.7310    2.8590 h1        1 MOL      0.134657
    159 H69        -1.4910   -3.8100    2.5610 hc        1 MOL      0.039404
    160 H70        -2.1220   -2.8350    1.2900 hc        1 MOL      0.039404
    161 H71        -2.9190   -4.9950    0.1060 hc        1 MOL      0.035899
    162 H72        -1.8200   -5.8780    1.2330 hc        1 MOL      0.035899
    163 N14        -4.3040   -1.4940    3.3500 n         1 MOL     -0.100001
    164 C55        -4.5600   -0.4530    4.3840 c3        1 MOL     -0.315835
    165 H73        -3.7440   -0.4520    5.1070 h1        1 MOL      0.121587
    166 H74        -4.6240    0.5250    3.9080 h1        1 MOL      0.121587
    167 H75        -5.4980   -0.6710    4.8950 h1        1 MOL      0.121587
    168 H76        -4.6520   -1.3390    2.4210 hn        1 MOL      0.111000
    169 Ca1         1.2830   -3.2100   -2.0000 Ca        1 MOL      1.852569
    170 O24        -0.0350   -2.9970   -4.2580 oh        1 MOL     -0.892721
    171 H77        -0.6620   -3.6290   -4.6300 ho        1 MOL      0.425519
    172 H78         0.0050   -2.3000   -4.9110 ho        1 MOL      0.425519
    173 O25         3.1120   -3.5660   -3.9640 oh        1 MOL     -0.892721
    174 H79         3.5160   -2.7380   -4.2040 ho        1 MOL      0.425519
    175 H80         3.7490   -4.2240   -4.2270 ho        1 MOL      0.425519
    176 O26         1.6930   -5.7090   -2.7620 oh        1 MOL     -0.892721
    177 H81         1.8560   -6.6180   -2.5100 ho        1 MOL      0.425519
    178 H82         1.3940   -5.7450   -3.6680 ho        1 MOL      0.425519
@<TRIPOS>BOND
     1    1    2 1   
     2    1    4 1   
     3    1    5 1   
     4    1    6 1   
     5    2    3 2   
     6    2    7 1   
     7    7    8 1   
     8    7   15 1   
     9    8    9 1   
    10    8   11 1   
    11    8   16 1   
    12    9   10 2   
    13    9   19 1   
    14   11   12 1   
    15   11   17 1   
    16   11   18 1   
    17   12   13 1   
    18   12   14 1   
    19   19   20 1   
    20   19   24 1   
    21   20   21 1   
    22   20   23 1   
    23   20   25 1   
    24   21   22 2   
    25   21   29 1   
    26   23   26 1   
    27   23   27 1   
    28   23   28 1   
    29   29   30 1   
    30   29   37 1   
    31   30   31 1   
    32   30   33 1   
    33   30   38 1   
    34   31   32 2   
    35   31   41 1   
    36   33   34 1   
    37   33   39 1   
    38   33   40 1   
    39   34   35 1   
    40   34   36 1   
    41   41   42 1   
    42   41   45 1   
    43   42   43 1   
    44   42   46 1   
    45   42   47 1   
    46   43   44 2   
    47   43   48 1   
    48   48   49 1   
    49   48   56 1   
    50   49   50 1   
    51   49   52 1   
    52   49   57 1   
    53   50   51 2   
    54   50   62 1   
    55   52   53 1   
    56   52   58 1   
    57   52   59 1   
    58   53   54 1   
    59   53   55 2   
    60   54   60 1   
    61   54   61 1   
    62   62   63 1   
    63   62   66 1   
    64   63   64 1   
    65   63   67 1   
    66   63   68 1   
    67   64   65 2   
    68   64   69 1   
    69   69   70 1   
    70   69   76 1   
    71   70   71 1   
    72   70   73 1   
    73   70   77 1   
    74   71   72 2   
    75   71   83 1   
    76   73   74 1   
    77   73   75 1   
    78   73   78 1   
    79   74   80 1   
    80   74   81 1   
    81   74   82 1   
    82   75   79 1   
    83   83   84 1   
    84   83   91 1   
    85   84   85 1   
    86   84   87 1   
    87   84   92 1   
    88   85   86 2   
    89   85  102 1   
    90   87   88 1   
    91   87   89 1   
    92   87   93 1   
    93   88   90 1   
    94   88   94 1   
    95   88   95 1   
    96   89   96 1   
    97   89   97 1   
    98   89   98 1   
    99   90   99 1   
   100   90  100 1   
   101   90  101 1   
   102  102  103 1   
   103  102  110 1   
   104  103  104 1   
   105  103  106 1   
   106  103  111 1   
   107  104  105 2   
   108  104  114 1   
   109  106  107 1   
   110  106  112 1   
   111  106  113 1   
   112  107  108 1   
   113  107  109 1   
   114  114  115 1   
   115  114  125 1   
   116  115  116 1   
   117  115  118 1   
   118  115  126 1   
   119  116  117 2   
   120  116  134 1   
   121  118  119 1   
   122  118  127 1   
   123  118  128 1   
   124  119  120 ar  
   125  119  121 ar  
   126  120  122 ar  
   127  120  129 1   
   128  121  123 ar  
   129  121  130 1   
   130  122  124 ar  
   131  122  131 1   
   132  123  124 ar  
   133  123  132 1   
   134  124  133 1   
   135  134  135 1   
   136  134  140 1   
   137  135  136 1   
   138  135  138 1   
   139  135  141 1   
   140  136  137 2   
   141  136  148 1   
   142  138  139 1   
   143  138  142 1   
   144  138  143 1   
   145  139  140 1   
   146  139  144 1   
   147  139  145 1   
   148  140  146 1   
   149  140  147 1   
   150  148  149 1   
   151  148  157 1   
   152  149  150 1   
   153  149  152 1   
   154  149  158 1   
   155  150  151 2   
   156  150  163 1   
   157  152  153 1   
   158  152  159 1   
   159  152  160 1   
   160  153  154 1   
   161  153  161 1   
   162  153  162 1   
   163  154  155 1   
   164  154  156 1   
   165  163  164 1   
   166  163  168 1   
   167  164  165 1   
   168  164  166 1   
   169  164  167 1   
   170  170  171 1   
   171  170  172 1   
   172  173  174 1   
   173  173  175 1   
   174  176  177 1   
   175  176  178 1   
@<TRIPOS>SUBSTRUCTURE
     1 MOL         1 TEMP              0 ****  ****    0 ROOT
