@<TRIPOS>MOLECULE
MOL
  181   177     1     0     0
SMALL
resp


@<TRIPOS>ATOM
      1 C1          6.3910    7.9320   -1.8660 c3        1 MOL     -0.290514
      2 C2          5.5430    6.8110   -1.2160 c         1 MOL      0.516600
      3 O1          4.4860    7.1380   -0.6240 o         1 MOL     -0.543436
      4 H1          6.8240    8.5580   -1.0860 hc        1 MOL      0.077564
      5 H2          7.1890    7.4860   -2.4590 hc        1 MOL      0.077564
      6 H3          5.7560    8.5420   -2.5090 hc        1 MOL      0.077564
      7 N1          5.8720    5.5350   -1.4170 n         1 MOL     -0.310065
      8 C3          7.1850    4.9590   -1.7480 c3        1 MOL      0.056127
      9 C4          8.1120    4.4890   -0.6610 c         1 MOL      0.329754
     10 O2          9.3210    4.2010   -0.9070 o         1 MOL     -0.531166
     11 C5          6.8880    3.8180   -2.6860 c3        1 MOL     -0.535785
     12 C6          5.9980    2.6490   -2.2980 c         1 MOL      1.055830
     13 O3          5.6300    2.3690   -1.1360 o         1 MOL     -0.848591
     14 O4          5.7810    1.7300   -3.1070 o         1 MOL     -0.848591
     15 H4          5.1600    4.8690   -1.1450 hn        1 MOL      0.229801
     16 H5          7.6630    5.7200   -2.3620 h1        1 MOL      0.127734
     17 H6          7.8380    3.3720   -2.9800 hc        1 MOL      0.131385
     18 H7          6.3410    4.2420   -3.5190 hc        1 MOL      0.131385
     19 N2          7.5420    4.4050    0.5120 n         1 MOL     -0.170950
     20 C7          8.1520    4.0280    1.7220 c3        1 MOL     -0.044711
     21 C8          8.1330    2.5140    1.9700 c         1 MOL      0.430511
     22 O5          8.8880    1.9980    2.7870 o         1 MOL     -0.533687
     23 C9          7.4580    4.8720    2.8650 c3        1 MOL     -0.275553
     24 H8          6.5370    4.5510    0.5250 hn        1 MOL      0.205746
     25 H9          9.1650    4.3840    1.5480 h1        1 MOL      0.113441
     26 H10         6.4320    4.5110    2.9590 hc        1 MOL      0.099458
     27 H11         7.8260    4.7540    3.8860 hc        1 MOL      0.099458
     28 H12         7.3020    5.9340    2.6810 hc        1 MOL      0.099458
     29 N3          7.2760    1.7190    1.2430 n         1 MOL     -0.294848
     30 C10         7.1510    0.2540    1.3240 c3        1 MOL      0.129004
     31 C11         7.2600   -0.3960   -0.0550 c         1 MOL      0.252158
     32 O6          6.2970   -0.5550   -0.8020 o         1 MOL     -0.420171
     33 C12         5.8060   -0.1240    2.0550 c3        1 MOL      0.163850
     34 C13         4.6080    0.7510    1.9140 c         1 MOL      0.572180
     35 O7          3.9660    0.7770    0.7860 o         1 MOL     -0.677253
     36 O8          4.1740    1.4420    2.8320 o         1 MOL     -0.677253
     37 H13         6.8020    2.2600    0.5410 hn        1 MOL      0.287641
     38 H14         8.0440   -0.1260    1.8020 h1        1 MOL     -0.001550
     39 H15         6.0270   -0.3340    3.0990 hc        1 MOL     -0.064692
     40 H16         5.5650   -1.0840    1.5900 hc        1 MOL     -0.064692
     41 N4          8.4390   -0.8450   -0.4370 n         1 MOL     -0.138763
     42 C14         8.8780   -1.4610   -1.7190 c3        1 MOL     -0.469515
     43 C15         8.1100   -2.7520   -2.0730 c         1 MOL      0.596729
     44 O9          8.1000   -3.1780   -3.2410 o         1 MOL     -0.558449
     45 H17         9.1760   -0.5510    0.1910 hn        1 MOL      0.245563
     46 H18         9.9210   -1.7910   -1.6450 h1        1 MOL      0.208102
     47 H19         8.5930   -0.8270   -2.5550 h1        1 MOL      0.208102
     48 N5          7.6020   -3.4290   -1.0350 n         1 MOL     -0.331286
     49 C16         6.9250   -4.7610   -0.9760 c3        1 MOL      0.100705
     50 C17         5.4720   -4.7000   -0.3930 c         1 MOL      0.453324
     51 O10         4.4260   -5.1520   -0.9720 o         1 MOL     -0.468338
     52 C18         7.8630   -5.6950   -0.2710 c3        1 MOL     -0.345018
     53 C19         7.2580   -7.1050   -0.1100 c         1 MOL      0.706354
     54 N6          7.6380   -8.0500   -0.9620 n         1 MOL     -0.822593
     55 O11         6.6010   -7.3630    0.8420 o         1 MOL     -0.525202
     56 H20         7.6310   -3.0240   -0.1060 hn        1 MOL      0.183387
     57 H21         6.7980   -5.1300   -1.9920 h1        1 MOL      0.077028
     58 H22         8.2040   -5.3950    0.7200 hc        1 MOL      0.085955
     59 H23         8.8020   -5.6540   -0.8270 hc        1 MOL      0.085955
     60 H24         8.2490   -7.7430   -1.7000 hn        1 MOL      0.375853
     61 H25         7.3940   -8.9910   -0.6960 hn        1 MOL      0.375853
     62 N7          5.3870   -4.0170    0.7940 n         1 MOL     -0.498615
     63 C20         4.0900   -3.6340    1.4200 c3        1 MOL     -0.089016
     64 C21         3.4380   -2.3650    0.7270 c         1 MOL      0.537506
     65 O12         3.8890   -1.9540   -0.3520 o         1 MOL     -0.595124
     66 H26         6.2700   -3.7230    1.1920 hn        1 MOL      0.328578
     67 H27         4.1230   -3.4680    2.4990 h1        1 MOL      0.130274
     68 H28         3.3740   -4.4420    1.2700 h1        1 MOL      0.130274
     69 N8          2.4820   -1.7290    1.3120 n         1 MOL     -0.166474
     70 C22         1.7090   -2.1230    2.5490 c3        1 MOL     -0.061529
     71 C23         0.2340   -1.8990    2.3780 c         1 MOL      0.368201
     72 O13        -0.5570   -2.7300    2.7180 o         1 MOL     -0.480489
     73 C24         2.1740   -1.3070    3.8090 c3        1 MOL      0.645339
     74 C25         1.6140   -1.7670    5.1440 c3        1 MOL     -0.641974
     75 O14         3.5720   -1.3190    4.0110 oh        1 MOL     -0.661237
     76 H29         2.0130   -1.0810    0.6930 hn        1 MOL      0.091030
     77 H30         1.9420   -3.1520    2.8110 h1        1 MOL      0.047289
     78 H31         1.7850   -0.3080    3.6320 h1        1 MOL     -0.035186
     79 H32         3.8440   -0.3950    4.0690 ho        1 MOL      0.357291
     80 H33         2.1350   -1.1720    5.8970 hc        1 MOL      0.150225
     81 H34         0.5770   -1.4520    5.2810 hc        1 MOL      0.150225
     82 H35         1.6870   -2.8490    5.2080 hc        1 MOL      0.150225
     83 N9         -0.1990   -0.6900    1.8750 n         1 MOL     -0.097605
     84 C26        -1.5570   -0.2270    1.6330 c3        1 MOL      0.009426
     85 C27        -1.8890   -0.1380    0.0670 c         1 MOL      0.373514
     86 O15        -1.1340    0.4570   -0.7040 o         1 MOL     -0.556431
     87 C28        -1.9310    1.1440    2.2740 c3        1 MOL      0.164800
     88 C29        -1.5390    1.3290    3.7040 c3        1 MOL      0.014394
     89 C30        -3.3660    1.5780    2.1400 c3        1 MOL     -0.363548
     90 C31        -2.1030    0.4230    4.8120 c3        1 MOL     -0.199155
     91 H36         0.4650    0.0610    1.8270 hn        1 MOL      0.132788
     92 H37        -2.2020   -0.9310    2.1660 h1        1 MOL      0.099299
     93 H38        -1.3620    1.8630    1.6820 hc        1 MOL     -0.047748
     94 H39        -1.8160    2.3810    3.8230 hc        1 MOL     -0.003324
     95 H40        -0.4550    1.3500    3.7470 hc        1 MOL     -0.003324
     96 H41        -3.8710    0.9840    2.8910 hc        1 MOL      0.135195
     97 H42        -3.3920    2.6280    2.4450 hc        1 MOL      0.135195
     98 H43        -3.8060    1.5410    1.1460 hc        1 MOL      0.135195
     99 H44        -1.6740    0.7630    5.7540 hc        1 MOL      0.046373
    100 H45        -3.1930    0.4140    4.7260 hc        1 MOL      0.046373
    101 H46        -1.6560   -0.5750    4.7110 hc        1 MOL      0.046373
    102 N10        -2.9860   -0.7090   -0.5310 n         1 MOL     -0.219739
    103 C32        -4.0680   -1.4010    0.2000 c3        1 MOL     -0.220329
    104 C33        -5.3580   -1.2630   -0.6360 c         1 MOL      0.603874
    105 O16        -5.4070   -0.9320   -1.8130 o         1 MOL     -0.486563
    106 C34        -3.5870   -2.8330    0.3160 c3        1 MOL      0.149479
    107 C35        -2.7450   -3.3610   -0.8520 c         1 MOL      0.589585
    108 O17        -1.6180   -3.8820   -0.5500 o         1 MOL     -0.696973
    109 O18        -3.2290   -3.1800   -1.9960 o         1 MOL     -0.696973
    110 H47        -3.1580   -0.5370   -1.5140 hn        1 MOL      0.262320
    111 H48        -4.1090   -0.9730    1.1980 h1        1 MOL      0.059402
    112 H49        -4.4410   -3.5140    0.3700 hc        1 MOL     -0.062283
    113 H50        -2.9910   -3.0190    1.2070 hc        1 MOL     -0.062283
    114 N11        -6.4300   -1.5310    0.1890 n         1 MOL     -0.621839
    115 C36        -7.8120   -1.6040   -0.3320 c3        1 MOL      0.449590
    116 C37        -8.7170   -1.1230    0.7890 c         1 MOL      0.311761
    117 O19        -8.4020   -1.4040    1.9590 o         1 MOL     -0.506299
    118 C38        -8.1170   -3.1050   -0.7240 c3        1 MOL     -0.239133
    119 C39        -9.4930   -3.3040   -1.2640 ca        1 MOL      0.074338
    120 C40       -10.4290   -3.5910   -0.2820 ca        1 MOL     -0.114717
    121 C41        -9.8350   -3.1860   -2.5940 ca        1 MOL     -0.114717
    122 C42       -11.7520   -3.8750   -0.6430 ca        1 MOL     -0.124573
    123 C43       -11.1390   -3.4150   -3.0130 ca        1 MOL     -0.124573
    124 C44       -12.0670   -3.8520   -2.0520 ca        1 MOL     -0.161515
    125 H51        -6.2500   -1.4800    1.1840 hn        1 MOL      0.330658
    126 H52        -8.0140   -0.8920   -1.1200 h1        1 MOL     -0.053494
    127 H53        -7.9970   -3.8060    0.0990 hc        1 MOL      0.098692
    128 H54        -7.4580   -3.4170   -1.5320 hc        1 MOL      0.098692
    129 H55       -10.1280   -3.8670    0.7170 ha        1 MOL      0.106720
    130 H56        -9.0000   -2.8220   -3.1760 ha        1 MOL      0.106720
    131 H57       -12.5330   -4.1650    0.0370 ha        1 MOL      0.110733
    132 H58       -11.4130   -3.1630   -4.0330 ha        1 MOL      0.110733
    133 H59       -13.0880   -4.0150   -2.3540 ha        1 MOL      0.098924
    134 N12        -9.8510   -0.4600    0.4920 n         1 MOL     -0.093090
    135 C45       -10.3000    0.2020   -0.7720 c3        1 MOL      0.338244
    136 C46        -9.3510    1.3330   -1.2790 c         1 MOL      0.341325
    137 O20        -8.6600    1.2220   -2.3020 o         1 MOL     -0.503235
    138 C47       -11.7470    0.6260   -0.6110 c3        1 MOL     -0.106203
    139 C48       -12.2020   -0.2480    0.6070 c3        1 MOL     -0.044207
    140 C49       -10.9370   -0.3790    1.4770 c3        1 MOL     -0.128501
    141 H60       -10.2670   -0.5100   -1.6020 h1        1 MOL     -0.029490
    142 H61       -11.7750    1.7080   -0.5170 hc        1 MOL      0.018657
    143 H62       -12.2550    0.3970   -1.5510 hc        1 MOL      0.018657
    144 H63       -13.1270    0.0560    1.0960 hc        1 MOL      0.024220
    145 H64       -12.3100   -1.2760    0.2430 hc        1 MOL      0.024220
    146 H65       -10.8940    0.4850    2.1320 h1        1 MOL      0.081655
    147 H66       -11.1400   -1.2460    2.1070 h1        1 MOL      0.081655
    148 N13        -9.2350    2.4040   -0.4100 n         1 MOL     -0.417114
    149 C50        -8.3210    3.5420   -0.5790 c3        1 MOL      0.302895
    150 C51        -8.9740    4.6740   -1.3740 c         1 MOL      0.321544
    151 O21        -9.7490    5.4890   -0.8810 o         1 MOL     -0.561123
    152 C52        -7.6830    4.0180    0.8230 c3        1 MOL     -0.066761
    153 C53        -6.7810    2.9970    1.4980 c3        1 MOL     -0.037257
    154 C54        -6.4620    3.4060    3.0050 c         1 MOL      0.678061
    155 O22        -6.5160    2.4400    3.7810 o         1 MOL     -0.714798
    156 O23        -6.1230    4.5910    3.2990 o         1 MOL     -0.714798
    157 H67        -9.7540    2.4400    0.4520 hn        1 MOL      0.280872
    158 H68        -7.4830    3.2550   -1.2150 h1        1 MOL      0.045245
    159 H69        -8.5770    4.1990    1.4360 hc        1 MOL      0.008960
    160 H70        -7.1400    4.9460    0.7000 hc        1 MOL      0.008960
    161 H71        -5.8610    2.8650    0.9230 hc        1 MOL     -0.054984
    162 H72        -7.2540    2.0170    1.4960 hc        1 MOL     -0.054984
    163 N14        -8.6310    4.8980   -2.6510 n         1 MOL     -0.270414
    164 C55        -7.6960    4.1720   -3.5560 c3        1 MOL     -0.181778
    165 H73        -7.6730    3.1170   -3.2850 h1        1 MOL      0.086297
    166 H74        -8.0350    4.2740   -4.5870 h1        1 MOL      0.086297
    167 H75        -6.6950    4.5920   -3.4590 h1        1 MOL      0.086297
    168 H76        -9.1370    5.6330   -3.1260 hn        1 MOL      0.248591
    169 Ca1         4.1360    0.2740   -1.7320 Ca        1 MOL      1.768976
    170 O24         2.8800   -0.0010   -4.1060 oh        1 MOL     -0.822128
    171 H77         3.5410   -0.2930   -4.7300 ho        1 MOL      0.407544
    172 H78         2.0580   -0.0550   -4.5900 ho        1 MOL      0.407544
    173 O25         5.1320   -1.5740   -3.6140 oh        1 MOL     -0.822128
    174 H79         5.9100   -1.5350   -4.1640 ho        1 MOL      0.407544
    175 H80         4.7900   -2.4600   -3.7410 ho        1 MOL      0.407544
    176 O26         1.5430   -0.5590   -1.3620 oh        1 MOL     -0.822128
    177 H81         0.7450   -0.0430   -1.3490 ho        1 MOL      0.407544
    178 H82         1.2490   -1.4630   -1.2180 ho        1 MOL      0.407544
    179 O27         2.8300    2.5390   -2.5760 oh        1 MOL     -0.822128
    180 H83         2.0060    2.4780   -2.1000 ho        1 MOL      0.407544
    181 H84         2.6360    3.1030   -3.3230 ho        1 MOL      0.407544
@<TRIPOS>BOND
     1    1    2 1   
     2    1    4 1   
     3    1    5 1   
     4    1    6 1   
     5    2    3 2   
     6    2    7 1   
     7    7    8 1   
     8    7   15 1   
     9    8    9 1   
    10    8   11 1   
    11    8   16 1   
    12    9   10 2   
    13    9   19 1   
    14   11   12 1   
    15   11   17 1   
    16   11   18 1   
    17   12   13 1   
    18   12   14 1   
    19   19   20 1   
    20   19   24 1   
    21   20   21 1   
    22   20   23 1   
    23   20   25 1   
    24   21   22 2   
    25   21   29 1   
    26   23   26 1   
    27   23   27 1   
    28   23   28 1   
    29   29   30 1   
    30   29   37 1   
    31   30   31 1   
    32   30   33 1   
    33   30   38 1   
    34   31   32 2   
    35   31   41 1   
    36   33   34 1   
    37   33   39 1   
    38   33   40 1   
    39   34   35 1   
    40   34   36 1   
    41   41   42 1   
    42   41   45 1   
    43   42   43 1   
    44   42   46 1   
    45   42   47 1   
    46   43   44 2   
    47   43   48 1   
    48   48   49 1   
    49   48   56 1   
    50   49   50 1   
    51   49   52 1   
    52   49   57 1   
    53   50   51 2   
    54   50   62 1   
    55   52   53 1   
    56   52   58 1   
    57   52   59 1   
    58   53   54 1   
    59   53   55 2   
    60   54   60 1   
    61   54   61 1   
    62   62   63 1   
    63   62   66 1   
    64   63   64 1   
    65   63   67 1   
    66   63   68 1   
    67   64   65 2   
    68   64   69 1   
    69   69   70 1   
    70   69   76 1   
    71   70   71 1   
    72   70   73 1   
    73   70   77 1   
    74   71   72 2   
    75   71   83 1   
    76   73   74 1   
    77   73   75 1   
    78   73   78 1   
    79   74   80 1   
    80   74   81 1   
    81   74   82 1   
    82   75   79 1   
    83   83   84 1   
    84   83   91 1   
    85   84   85 1   
    86   84   87 1   
    87   84   92 1   
    88   85   86 2   
    89   85  102 1   
    90   87   88 1   
    91   87   89 1   
    92   87   93 1   
    93   88   90 1   
    94   88   94 1   
    95   88   95 1   
    96   89   96 1   
    97   89   97 1   
    98   89   98 1   
    99   90   99 1   
   100   90  100 1   
   101   90  101 1   
   102  102  103 1   
   103  102  110 1   
   104  103  104 1   
   105  103  106 1   
   106  103  111 1   
   107  104  105 2   
   108  104  114 1   
   109  106  107 1   
   110  106  112 1   
   111  106  113 1   
   112  107  108 1   
   113  107  109 1   
   114  114  115 1   
   115  114  125 1   
   116  115  116 1   
   117  115  118 1   
   118  115  126 1   
   119  116  117 2   
   120  116  134 1   
   121  118  119 1   
   122  118  127 1   
   123  118  128 1   
   124  119  120 ar  
   125  119  121 ar  
   126  120  122 ar  
   127  120  129 1   
   128  121  123 ar  
   129  121  130 1   
   130  122  124 ar  
   131  122  131 1   
   132  123  124 ar  
   133  123  132 1   
   134  124  133 1   
   135  134  135 1   
   136  134  140 1   
   137  135  136 1   
   138  135  138 1   
   139  135  141 1   
   140  136  137 2   
   141  136  148 1   
   142  138  139 1   
   143  138  142 1   
   144  138  143 1   
   145  139  140 1   
   146  139  144 1   
   147  139  145 1   
   148  140  146 1   
   149  140  147 1   
   150  148  149 1   
   151  148  157 1   
   152  149  150 1   
   153  149  152 1   
   154  149  158 1   
   155  150  151 2   
   156  150  163 1   
   157  152  153 1   
   158  152  159 1   
   159  152  160 1   
   160  153  154 1   
   161  153  161 1   
   162  153  162 1   
   163  154  155 1   
   164  154  156 1   
   165  163  164 1   
   166  163  168 1   
   167  164  165 1   
   168  164  166 1   
   169  164  167 1   
   170  170  171 1   
   171  170  172 1   
   172  173  174 1   
   173  173  175 1   
   174  176  177 1   
   175  176  178 1   
   176  179  180 1   
   177  179  181 1   
@<TRIPOS>SUBSTRUCTURE
     1 MOL         1 TEMP              0 ****  ****    0 ROOT
