@<TRIPOS>MOLECULE
MOL
  198   191     1     0     0
SMALL
resp


@<TRIPOS>ATOM
      1 C1         11.8800    4.1170   -3.1200 c3        1 MOL     -0.587018
      2 C2         11.4300    2.7450   -2.6550 c         1 MOL      0.735773
      3 O1         11.3650    1.7230   -3.3270 o         1 MOL     -0.623750
      4 H1         12.6060    4.0060   -3.9250 hc        1 MOL      0.153437
      5 H2         11.0190    4.6790   -3.4820 hc        1 MOL      0.153437
      6 H3         12.3390    4.6500   -2.2880 hc        1 MOL      0.153437
      7 N1         11.1860    2.6190   -1.3530 n         1 MOL     -0.316181
      8 C3         10.8020    1.3470   -0.7220 c3        1 MOL     -0.075120
      9 C4          9.3210    1.0450   -0.8870 c         1 MOL      0.412666
     10 O2          8.4820    1.9960   -0.9380 o         1 MOL     -0.552086
     11 C5         11.2230    1.2230    0.7670 c3        1 MOL     -0.084473
     12 C6         10.9420    2.4920    1.5780 c         1 MOL      0.636929
     13 O3         10.0750    3.2900    1.1660 o         1 MOL     -0.661198
     14 O4         11.3660    2.6650    2.7380 o         1 MOL     -0.661198
     15 H4         11.2080    3.4620   -0.7850 hn        1 MOL      0.156793
     16 H5         11.3210    0.5530   -1.2600 h1        1 MOL      0.082248
     17 H6         12.3060    1.0830    0.8010 hc        1 MOL      0.049422
     18 H7         10.7660    0.3600    1.2480 hc        1 MOL      0.049422
     19 N2          8.9910   -0.2580   -0.9930 n         1 MOL     -0.353982
     20 C7          7.6060   -0.5980   -1.4380 c3        1 MOL      0.288612
     21 C8          6.6970   -0.9680   -0.2790 c         1 MOL      0.468886
     22 O5          6.9100   -2.0000    0.3020 o         1 MOL     -0.532477
     23 C9          7.7050   -1.6660   -2.5120 c3        1 MOL     -0.320206
     24 C10         6.2990   -2.1590   -2.9570 c3        1 MOL      0.021301
     25 C11         6.4680   -3.1440   -4.1340 c3        1 MOL     -0.010372
     26 C12         5.2370   -4.0640   -4.2340 c3        1 MOL      0.098003
     27 N3          5.2850   -4.9930   -5.3750 n4        1 MOL     -0.396698
     28 H8          9.7060   -0.9660   -0.8920 hn        1 MOL      0.294004
     29 H9          7.0620    0.2250   -1.8970 h1        1 MOL      0.042596
     30 H10         8.2730   -2.5030   -2.1070 hc        1 MOL      0.093362
     31 H11         8.2070   -1.2180   -3.3730 hc        1 MOL      0.093362
     32 H12         5.6170   -1.3690   -3.2740 hc        1 MOL      0.027976
     33 H13         5.7440   -2.7100   -2.1970 hc        1 MOL      0.027976
     34 H14         7.3650   -3.7600   -4.1870 hc        1 MOL      0.015616
     35 H15         6.5130   -2.4930   -5.0120 hc        1 MOL      0.015616
     36 H16         4.3290   -3.4660   -4.3040 hx        1 MOL      0.089877
     37 H17         5.1690   -4.7800   -3.4240 hx        1 MOL      0.089877
     38 H18         5.4800   -4.5030   -6.2320 hn        1 MOL      0.276873
     39 H19         5.9870   -5.7100   -5.3350 hn        1 MOL      0.276873
     40 H20         4.3710   -5.4400   -5.3510 hn        1 MOL      0.276873
     41 N4          5.8670   -0.0620    0.0930 n         1 MOL     -0.478014
     42 C13         5.0030   -0.1240    1.2380 c3        1 MOL      0.444419
     43 C14         3.6490    0.4080    0.8940 c         1 MOL      0.207724
     44 O6          3.4860    1.3000    0.0510 o         1 MOL     -0.523590
     45 C15         5.6570    0.3540    2.5100 c3        1 MOL     -0.093395
     46 C16         6.3640    1.6680    2.3320 c         1 MOL      0.573232
     47 O7          5.7480    2.7250    2.3000 o         1 MOL     -0.641275
     48 O8          7.6090    1.7070    2.0930 o         1 MOL     -0.641275
     49 H21         6.0150    0.8610   -0.2800 hn        1 MOL      0.124180
     50 H22         4.7650   -1.1730    1.4380 h1        1 MOL     -0.010444
     51 H23         6.2550   -0.4850    2.8860 hc        1 MOL      0.031559
     52 H24         4.8730    0.4540    3.2650 hc        1 MOL      0.031559
     53 N5          2.6170    0.0840    1.6430 n         1 MOL     -0.147658
     54 C17         2.4510   -0.7180    2.8830 c3        1 MOL     -0.378512
     55 C18         2.6200   -2.2600    2.7570 c         1 MOL      0.584194
     56 O9          2.7410   -2.7570    1.6450 o         1 MOL     -0.498573
     57 H25         1.7580    0.3080    1.1640 hn        1 MOL      0.262351
     58 H26         1.3770   -0.6270    3.0880 h1        1 MOL      0.150904
     59 H27         3.0570   -0.4240    3.7340 h1        1 MOL      0.150904
     60 N6          2.5880   -3.0790    3.7660 n         1 MOL     -0.288925
     61 C19         2.7650   -4.5860    3.7120 c3        1 MOL     -0.270185
     62 C20         1.7040   -5.2750    2.7550 c         1 MOL      0.576816
     63 O10         0.5450   -5.3620    3.0390 o         1 MOL     -0.492093
     64 C21         2.5690   -5.1120    5.1110 c3        1 MOL     -0.038161
     65 C22         2.7230   -6.6270    5.3060 c         1 MOL      0.623608
     66 O11         1.8090   -7.4030    4.9590 o         1 MOL     -0.627768
     67 O12         3.6760   -7.0350    6.0040 o         1 MOL     -0.627768
     68 H28         2.4320   -2.6970    4.6900 hn        1 MOL      0.248152
     69 H29         3.7530   -4.8290    3.3230 h1        1 MOL      0.120003
     70 H30         1.5710   -4.8660    5.4890 hc        1 MOL      0.040781
     71 H31         3.2290   -4.6650    5.8440 hc        1 MOL      0.040781
     72 N7          2.1810   -5.5890    1.5480 n         1 MOL     -0.375782
     73 C23         1.2910   -6.1340    0.5520 c3        1 MOL     -0.053261
     74 C24         0.7470   -5.2830   -0.5670 c         1 MOL      0.491529
     75 O13         0.2240   -5.7190   -1.5550 o         1 MOL     -0.586394
     76 H32         3.1200   -5.2990    1.3180 hn        1 MOL      0.275654
     77 H33         0.4460   -6.6160    1.0380 h1        1 MOL      0.087591
     78 H34         1.8830   -6.9260    0.0860 h1        1 MOL      0.087591
     79 N8          1.0570   -3.9900   -0.5640 n         1 MOL     -0.186570
     80 C25         0.6120   -3.0140   -1.6450 c3        1 MOL      0.053563
     81 C26        -0.0180   -1.7880   -0.9830 c         1 MOL      0.303637
     82 O14         0.2660   -1.5580    0.1830 o         1 MOL     -0.435469
     83 C27         1.7030   -2.5680   -2.5540 c3        1 MOL      0.300806
     84 C28         2.7590   -1.6890   -1.9820 c3        1 MOL     -0.426906
     85 O15         2.3750   -3.6270   -3.1820 oh        1 MOL     -0.646175
     86 H35         1.5520   -3.6060    0.2200 hn        1 MOL      0.155508
     87 H36        -0.1600   -3.4170   -2.2950 h1        1 MOL      0.054329
     88 H37         1.2090   -1.9840   -3.3340 h1        1 MOL     -0.017062
     89 H38         1.9040   -3.8850   -3.9780 ho        1 MOL      0.384642
     90 H39         3.5140   -1.4670   -2.7280 hc        1 MOL      0.125302
     91 H40         2.4100   -0.6840   -1.7530 hc        1 MOL      0.125302
     92 H41         3.2610   -2.1680   -1.1470 hc        1 MOL      0.125302
     93 N9         -0.7650   -0.9330   -1.7080 n         1 MOL     -0.139838
     94 C29        -1.1810    0.4850   -1.3140 c3        1 MOL     -0.317543
     95 C30        -2.5040    0.5040   -0.5320 c         1 MOL      0.546181
     96 O16        -2.8460    1.5080    0.0580 o         1 MOL     -0.527667
     97 C31        -1.3890    1.4560   -2.5100 c3        1 MOL      0.343329
     98 C32        -0.3050    1.4700   -3.6610 c3        1 MOL     -0.293675
     99 C33        -1.5990    2.9450   -2.0340 c3        1 MOL     -0.411876
    100 C34         1.0770    1.9630   -3.1560 c3        1 MOL      0.022215
    101 H42        -0.9230   -1.1420   -2.6790 hn        1 MOL      0.184505
    102 H43        -0.4080    0.8620   -0.6530 h1        1 MOL      0.173748
    103 H44        -2.3410    1.1770   -2.9620 hc        1 MOL     -0.028321
    104 H45        -0.5510    2.1110   -4.5160 hc        1 MOL      0.073854
    105 H46        -0.1410    0.4730   -4.0620 hc        1 MOL      0.073854
    106 H47        -2.6730    3.1170   -2.0270 hc        1 MOL      0.122761
    107 H48        -1.1010    3.0130   -1.0680 hc        1 MOL      0.122761
    108 H49        -1.1240    3.6460   -2.7160 hc        1 MOL      0.122761
    109 H50         1.0830    2.9660   -2.7380 hc        1 MOL      0.002109
    110 H51         1.4480    1.2750   -2.3950 hc        1 MOL      0.002109
    111 H52         1.8720    2.0540   -3.8910 hc        1 MOL      0.002109
    112 N10        -3.2780   -0.5710   -0.6680 n         1 MOL     -0.271215
    113 C35        -4.6330   -0.7490   -0.1510 c3        1 MOL     -0.154335
    114 C36        -5.5400   -1.4050   -1.1760 c         1 MOL      0.770588
    115 O17        -5.0750   -1.9950   -2.1370 o         1 MOL     -0.564803
    116 C37        -4.5700   -1.6300    1.0940 c3        1 MOL      0.289103
    117 C38        -3.8160   -2.9440    1.1790 c3        1 MOL     -0.278393
    118 O18        -4.2040   -0.8970    2.2150 oh        1 MOL     -0.586134
    119 H53        -2.9490   -1.3110   -1.2640 hn        1 MOL      0.164689
    120 H54        -5.1580    0.1960   -0.0370 h1        1 MOL      0.113645
    121 H55        -5.6100   -1.9020    1.2840 h1        1 MOL      0.059489
    122 H56        -3.3490   -0.5220    1.9790 ho        1 MOL      0.386471
    123 H57        -4.2140   -3.7500    0.5680 hc        1 MOL      0.087835
    124 H58        -2.7650   -2.7540    0.9530 hc        1 MOL      0.087835
    125 H59        -3.9700   -3.3350    2.1840 hc        1 MOL      0.087835
    126 N11        -6.8340   -1.3800   -0.9420 n         1 MOL     -0.779751
    127 C39        -7.8390   -1.7260   -1.9400 c3        1 MOL      0.187437
    128 C40        -8.9170   -0.7190   -2.0730 c         1 MOL      0.626529
    129 O19        -9.1770   -0.2340   -3.1480 o         1 MOL     -0.558970
    130 C41        -8.3720   -3.1560   -1.8070 c3        1 MOL      0.213904
    131 C42        -9.4640   -3.5620   -2.7950 c3        1 MOL     -0.314666
    132 O20        -8.8210   -3.3400   -0.4370 oh        1 MOL     -0.602877
    133 H60        -7.1670   -0.9620   -0.0830 hn        1 MOL      0.323495
    134 H61        -7.3440   -1.6690   -2.9050 h1        1 MOL      0.060612
    135 H62        -7.5160   -3.7720   -2.1040 h1        1 MOL      0.046954
    136 H63        -8.7280   -4.2790   -0.2640 ho        1 MOL      0.398677
    137 H64        -9.6690   -4.6240   -2.8600 hc        1 MOL      0.085158
    138 H65       -10.3680   -3.1320   -2.3460 hc        1 MOL      0.085158
    139 H66        -9.2800   -3.1030   -3.7680 hc        1 MOL      0.085158
    140 N12        -9.4470   -0.2350   -0.9120 n         1 MOL     -0.354557
    141 C43       -10.4410    0.9040   -0.7970 c3        1 MOL     -0.247540
    142 C44       -10.3920    1.7010    0.4970 c         1 MOL      0.506051
    143 O21       -10.0810    1.2250    1.5700 o         1 MOL     -0.486937
    144 C45       -11.8140    0.3400   -1.1000 c3        1 MOL     -0.238669
    145 C46       -12.2930   -0.7950   -0.2070 c3        1 MOL     -0.099689
    146 C47       -13.6350   -1.4050   -0.7060 c3        1 MOL      0.023380
    147 C48       -13.6470   -2.8040   -0.1040 c3        1 MOL      0.029733
    148 N13       -14.9370   -3.5130   -0.3210 n4        1 MOL     -0.123098
    149 H67        -9.2560   -0.7600   -0.0690 hn        1 MOL      0.286247
    150 H68       -10.1070    1.6010   -1.5690 h1        1 MOL      0.167647
    151 H69       -11.7010    0.0240   -2.1400 hc        1 MOL      0.100853
    152 H70       -12.6040    1.1000   -1.1170 hc        1 MOL      0.100853
    153 H71       -12.6120   -0.3080    0.7090 hc        1 MOL      0.091780
    154 H72       -11.4870   -1.4910   -0.0100 hc        1 MOL      0.091780
    155 H73       -13.6880   -1.4950   -1.7920 hc        1 MOL      0.027310
    156 H74       -14.5070   -0.8230   -0.4140 hc        1 MOL      0.027310
    157 H75       -13.5220   -2.6830    0.9750 hx        1 MOL      0.058529
    158 H76       -12.7240   -3.2700   -0.4540 hx        1 MOL      0.058529
    159 H77       -14.8330   -4.4960   -0.1220 hn        1 MOL      0.191247
    160 H78       -15.7970   -3.1640    0.0730 hn        1 MOL      0.191247
    161 H79       -15.3180   -3.4840   -1.2640 hn        1 MOL      0.191247
    162 N14       -10.7170    2.9990    0.4260 n         1 MOL     -0.326493
    163 C49       -10.4720    3.8910    1.5960 c3        1 MOL      0.085130
    164 C50        -8.9540    4.0200    1.8790 c         1 MOL      0.368380
    165 O22        -8.5890    3.6940    2.9780 o         1 MOL     -0.500886
    166 C51       -10.9540    5.3210    1.2960 c3        1 MOL      0.116712
    167 C52       -12.4660    5.3570    1.4850 c3        1 MOL     -0.383261
    168 C53       -12.8590    6.7460    1.0940 c         1 MOL      0.750558
    169 O23       -13.1270    7.0550   -0.0950 o         1 MOL     -0.649780
    170 O24       -12.8460    7.6790    1.8910 o         1 MOL     -0.649780
    171 H80       -11.0570    3.3780   -0.4460 hn        1 MOL      0.254684
    172 H81       -11.0430    3.5320    2.4580 h1        1 MOL      0.079376
    173 H82       -10.6060    5.6750    0.3300 hc        1 MOL      0.029583
    174 H83       -10.4310    5.9800    1.9840 hc        1 MOL      0.029583
    175 H84       -12.7960    5.0870    2.4900 hc        1 MOL      0.070659
    176 H85       -12.8860    4.6780    0.7390 hc        1 MOL      0.070659
    177 N15        -8.0710    4.1570    0.8860 n         1 MOL     -0.328498
    178 C54        -8.2100    4.7010   -0.5690 c3        1 MOL     -0.078023
    179 H86        -7.2200    4.8070   -1.0130 h1        1 MOL      0.063785
    180 H87        -8.8010    4.0040   -1.1640 h1        1 MOL      0.063785
    181 H88        -8.7050    5.6730   -0.5490 h1        1 MOL      0.063785
    182 H89        -7.1350    3.9920    1.2360 hn        1 MOL      0.271059
    183 Ca1         7.6440    3.9690    0.7850 Ca        1 MOL      1.687292
    184 O25         8.9310    6.2890    1.2630 oh        1 MOL     -0.837552
    185 H90         8.8430    7.0100    1.8810 ho        1 MOL      0.418024
    186 H91         9.8760    6.1710    1.1750 ho        1 MOL      0.418024
    187 O26         7.6010    5.1710   -1.7280 oh        1 MOL     -0.837552
    188 H92         7.8290    4.9830   -2.6470 ho        1 MOL      0.418024
    189 H93         7.2320    6.0520   -1.7530 ho        1 MOL      0.418024
    190 O27         5.5750    2.9340   -0.4980 oh        1 MOL     -0.837552
    191 H94         4.7890    2.4570   -0.2570 ho        1 MOL      0.418024
    192 H95         5.5730    2.9520   -1.4510 ho        1 MOL      0.418024
    193 O28         6.0550    6.0760    0.8110 oh        1 MOL     -0.837552
    194 H96         5.1330    6.2510    1.0030 ho        1 MOL      0.418024
    195 H97         6.2990    6.7440    0.1690 ho        1 MOL      0.418024
    196 O29         7.1580    5.0440    3.4340 oh        1 MOL     -0.837552
    197 H98         6.2050    5.1390    3.4460 ho        1 MOL      0.418024
    198 H99         7.4540    5.5240    4.2110 ho        1 MOL      0.418024
@<TRIPOS>BOND
     1    1    2 1   
     2    1    4 1   
     3    1    5 1   
     4    1    6 1   
     5    2    3 2   
     6    2    7 1   
     7    7    8 1   
     8    7   15 1   
     9    8    9 1   
    10    8   11 1   
    11    8   16 1   
    12    9   10 2   
    13    9   19 1   
    14   11   12 1   
    15   11   17 1   
    16   11   18 1   
    17   12   13 1   
    18   12   14 1   
    19   19   20 1   
    20   19   28 1   
    21   20   21 1   
    22   20   23 1   
    23   20   29 1   
    24   21   22 2   
    25   21   41 1   
    26   23   24 1   
    27   23   30 1   
    28   23   31 1   
    29   24   25 1   
    30   24   32 1   
    31   24   33 1   
    32   25   26 1   
    33   25   34 1   
    34   25   35 1   
    35   26   27 1   
    36   26   36 1   
    37   26   37 1   
    38   27   38 1   
    39   27   39 1   
    40   27   40 1   
    41   41   42 1   
    42   41   49 1   
    43   42   43 1   
    44   42   45 1   
    45   42   50 1   
    46   43   44 2   
    47   43   53 1   
    48   45   46 1   
    49   45   51 1   
    50   45   52 1   
    51   46   47 1   
    52   46   48 1   
    53   53   54 1   
    54   53   57 1   
    55   54   55 1   
    56   54   58 1   
    57   54   59 1   
    58   55   56 2   
    59   55   60 1   
    60   60   61 1   
    61   60   68 1   
    62   61   62 1   
    63   61   64 1   
    64   61   69 1   
    65   62   63 2   
    66   62   72 1   
    67   64   65 1   
    68   64   70 1   
    69   64   71 1   
    70   65   66 1   
    71   65   67 1   
    72   72   73 1   
    73   72   76 1   
    74   73   74 1   
    75   73   77 1   
    76   73   78 1   
    77   74   75 2   
    78   74   79 1   
    79   79   80 1   
    80   79   86 1   
    81   80   81 1   
    82   80   83 1   
    83   80   87 1   
    84   81   82 2   
    85   81   93 1   
    86   83   84 1   
    87   83   85 1   
    88   83   88 1   
    89   84   90 1   
    90   84   91 1   
    91   84   92 1   
    92   85   89 1   
    93   93   94 1   
    94   93  101 1   
    95   94   95 1   
    96   94   97 1   
    97   94  102 1   
    98   95   96 2   
    99   95  112 1   
   100   97   98 1   
   101   97   99 1   
   102   97  103 1   
   103   98  100 1   
   104   98  104 1   
   105   98  105 1   
   106   99  106 1   
   107   99  107 1   
   108   99  108 1   
   109  100  109 1   
   110  100  110 1   
   111  100  111 1   
   112  112  113 1   
   113  112  119 1   
   114  113  114 1   
   115  113  116 1   
   116  113  120 1   
   117  114  115 2   
   118  114  126 1   
   119  116  117 1   
   120  116  118 1   
   121  116  121 1   
   122  117  123 1   
   123  117  124 1   
   124  117  125 1   
   125  118  122 1   
   126  126  127 1   
   127  126  133 1   
   128  127  128 1   
   129  127  130 1   
   130  127  134 1   
   131  128  129 2   
   132  128  140 1   
   133  130  131 1   
   134  130  132 1   
   135  130  135 1   
   136  131  137 1   
   137  131  138 1   
   138  131  139 1   
   139  132  136 1   
   140  140  141 1   
   141  140  149 1   
   142  141  142 1   
   143  141  144 1   
   144  141  150 1   
   145  142  143 2   
   146  142  162 1   
   147  144  145 1   
   148  144  151 1   
   149  144  152 1   
   150  145  146 1   
   151  145  153 1   
   152  145  154 1   
   153  146  147 1   
   154  146  155 1   
   155  146  156 1   
   156  147  148 1   
   157  147  157 1   
   158  147  158 1   
   159  148  159 1   
   160  148  160 1   
   161  148  161 1   
   162  162  163 1   
   163  162  171 1   
   164  163  164 1   
   165  163  166 1   
   166  163  172 1   
   167  164  165 2   
   168  164  177 1   
   169  166  167 1   
   170  166  173 1   
   171  166  174 1   
   172  167  168 1   
   173  167  175 1   
   174  167  176 1   
   175  168  169 1   
   176  168  170 1   
   177  177  178 1   
   178  177  182 1   
   179  178  179 1   
   180  178  180 1   
   181  178  181 1   
   182  184  185 1   
   183  184  186 1   
   184  187  188 1   
   185  187  189 1   
   186  190  191 1   
   187  190  192 1   
   188  193  194 1   
   189  193  195 1   
   190  196  197 1   
   191  196  198 1   
@<TRIPOS>SUBSTRUCTURE
     1 MOL         1 TEMP              0 ****  ****    0 ROOT
