@<TRIPOS>MOLECULE
MOL
  185   180     1     0     0
SMALL
resp


@<TRIPOS>ATOM
      1 C1         -5.9210    1.3640   -3.0070 c3        1 MOL     -0.312950
      2 C2         -6.8040    1.5050   -1.7950 c         1 MOL      0.599239
      3 O1         -6.2690    1.5220   -0.7320 o         1 MOL     -0.507975
      4 H1         -5.7120    2.3500   -3.4200 hc        1 MOL      0.065996
      5 H2         -4.9850    0.8850   -2.7220 hc        1 MOL      0.065996
      6 H3         -6.4270    0.7560   -3.7580 hc        1 MOL      0.065996
      7 N1         -8.1590    1.5880   -1.8760 n         1 MOL     -0.492913
      8 C3         -9.0710    1.5750   -0.6960 c3        1 MOL      0.082981
      9 C4         -8.9230    0.3620    0.1850 c         1 MOL      0.411910
     10 O2         -9.1910    0.3850    1.3470 o         1 MOL     -0.447780
     11 C5         -9.1530    3.0000   -0.0490 c3        1 MOL     -0.140903
     12 C6        -10.5130    3.3830    0.5510 c         1 MOL      0.635852
     13 O3        -11.4560    2.5330    0.6190 o         1 MOL     -0.641259
     14 O4        -10.5920    4.5030    1.0520 o         1 MOL     -0.641259
     15 H4         -8.5380    1.6380   -2.8060 hn        1 MOL      0.285581
     16 H5        -10.0640    1.4080   -1.1280 h1        1 MOL      0.033922
     17 H6         -9.0190    3.7340   -0.8420 hc        1 MOL      0.065914
     18 H7         -8.3520    3.2570    0.6550 hc        1 MOL      0.065914
     19 N2         -8.4080   -0.7560   -0.3620 n         1 MOL     -0.347745
     20 C7         -8.1810   -2.0180    0.4310 c3        1 MOL      0.048025
     21 C8         -6.7070   -2.3530    0.7480 c         1 MOL      0.527010
     22 O5         -6.5090   -3.3750    1.3630 o         1 MOL     -0.562493
     23 C9         -9.0790   -3.2810    0.0310 c3        1 MOL     -0.031352
     24 C10       -10.6060   -2.9810    0.2580 c3        1 MOL      0.159129
     25 C11       -11.6380   -3.9660   -0.2080 c3        1 MOL     -0.162781
     26 C12       -11.5040   -4.3600   -1.6430 c3        1 MOL      0.195085
     27 N3        -12.6330   -5.1470   -2.2070 n4        1 MOL     -0.251487
     28 H8         -8.0810   -0.7420   -1.3210 hn        1 MOL      0.176296
     29 H9         -8.4950   -1.7490    1.4400 h1        1 MOL      0.113096
     30 H10        -8.7990   -4.1150    0.6620 hc        1 MOL      0.009016
     31 H11        -8.8150   -3.5130   -1.0000 hc        1 MOL      0.009016
     32 H12       -10.7850   -2.0930   -0.3430 hc        1 MOL      0.005659
     33 H13       -10.7050   -2.6680    1.3000 hc        1 MOL      0.005659
     34 H14       -12.6560   -3.6700    0.0560 hc        1 MOL      0.049829
     35 H15       -11.3540   -4.8620    0.3480 hc        1 MOL      0.049829
     36 H16       -10.5740   -4.9120   -1.7500 hx        1 MOL      0.004678
     37 H17       -11.4270   -3.3880   -2.1400 hx        1 MOL      0.004678
     38 H18       -12.8080   -6.0430   -1.8010 hn        1 MOL      0.249283
     39 H19       -13.4990   -4.6480   -2.0840 hn        1 MOL      0.249283
     40 H20       -12.5190   -5.3350   -3.1920 hn        1 MOL      0.249283
     41 N4         -5.7230   -1.4880    0.3480 n         1 MOL     -0.381729
     42 C13        -4.2730   -1.8130    0.4750 c3        1 MOL     -0.169380
     43 C14        -3.7730   -1.9240    1.9660 c         1 MOL      0.627403
     44 O6         -3.8020   -0.9930    2.7900 o         1 MOL     -0.506951
     45 C15        -3.4620   -0.6600   -0.3270 c3        1 MOL     -0.230807
     46 C16        -1.9140   -0.8190   -0.2810 c         1 MOL      0.759283
     47 O7         -1.4220   -1.8730    0.1680 o         1 MOL     -0.764881
     48 O8         -1.1950    0.1580   -0.5770 o         1 MOL     -0.764881
     49 H21        -5.9830   -0.6210   -0.0890 hn        1 MOL      0.266645
     50 H22        -4.1330   -2.7620   -0.0500 h1        1 MOL      0.092820
     51 H23        -3.7180    0.3550   -0.0230 hc        1 MOL      0.120926
     52 H24        -3.6640   -0.6610   -1.4000 hc        1 MOL      0.120926
     53 N5         -3.3290   -3.1200    2.2920 n         1 MOL     -0.233080
     54 C17        -2.8090   -3.6340    3.5680 c3        1 MOL     -0.224751
     55 C18        -1.5700   -2.9610    4.1890 c         1 MOL      0.539731
     56 O9         -1.2080   -3.2320    5.3480 o         1 MOL     -0.576755
     57 H25        -3.5770   -3.8270    1.6160 hn        1 MOL      0.241969
     58 H26        -2.6950   -4.7140    3.5180 h1        1 MOL      0.117895
     59 H27        -3.6100   -3.4390    4.2780 h1        1 MOL      0.117895
     60 N6         -0.9370   -2.1270    3.4730 n         1 MOL     -0.263350
     61 C19        -0.0220   -1.1420    4.0720 c3        1 MOL      0.095782
     62 C20        -0.2820    0.3750    3.6380 c         1 MOL      0.454241
     63 O10         0.2880    1.2610    4.2030 o         1 MOL     -0.525238
     64 C21         1.4390   -1.6540    3.9380 c3        1 MOL     -0.411811
     65 C22         1.8750   -1.7420    2.4690 c         1 MOL      0.836853
     66 N7          3.0380   -2.3240    2.1480 n         1 MOL     -0.820776
     67 O11         1.2160   -1.3710    1.5420 o         1 MOL     -0.661417
     68 H28        -1.0300   -2.1390    2.4640 hn        1 MOL      0.257536
     69 H29        -0.3030   -1.0080    5.1220 h1        1 MOL      0.106906
     70 H30         1.4670   -2.6660    4.3230 hc        1 MOL      0.126667
     71 H31         2.0670   -0.9750    4.5150 hc        1 MOL      0.126667
     72 H32         3.5430   -2.6880    2.9400 hn        1 MOL      0.329456
     73 H33         3.3390   -2.3630    1.1860 hn        1 MOL      0.329456
     74 N8         -1.1990    0.6350    2.7110 n         1 MOL     -0.101500
     75 C23        -1.5760    1.9860    2.1490 c3        1 MOL     -0.146293
     76 C24        -0.3980    2.7970    1.5380 c         1 MOL      0.639269
     77 O12         0.2230    3.6340    2.1660 o         1 MOL     -0.559166
     78 H34        -1.6790   -0.1730    2.3340 hn        1 MOL     -0.043732
     79 H35        -2.1180    2.5920    2.8700 h1        1 MOL      0.117849
     80 H36        -2.3120    1.7580    1.3810 h1        1 MOL      0.117849
     81 N9         -0.1580    2.6660    0.2420 n         1 MOL     -0.656448
     82 C25         0.8150    3.3590   -0.6160 c3        1 MOL      0.885232
     83 C26         2.0160    2.5070   -1.0280 c         1 MOL      0.180395
     84 O13         1.8120    1.2910   -1.3220 o         1 MOL     -0.530694
     85 C27         0.1530    3.9750   -1.9040 c3        1 MOL     -0.046863
     86 C28        -1.0090    4.9530   -1.6920 ca        1 MOL      0.049046
     87 C29        -0.9390    5.9750   -0.7190 ca        1 MOL     -0.236386
     88 C30        -2.2030    4.8330   -2.4100 ca        1 MOL     -0.236386
     89 C31        -2.0400    6.8490   -0.4650 ca        1 MOL     -0.187043
     90 C32        -3.3390    5.6840   -2.2130 ca        1 MOL     -0.187043
     91 C33        -3.1660    6.7370   -1.2490 ca        1 MOL      0.262303
     92 O14        -4.2880    7.4660   -1.0190 oh        1 MOL     -0.441502
     93 H37        -0.4890    1.8580   -0.2740 hn        1 MOL      0.263380
     94 H38         1.3160    4.2010   -0.1280 h1        1 MOL     -0.146506
     95 H39        -0.1740    3.0870   -2.4460 hc        1 MOL     -0.030523
     96 H40         0.8690    4.5010   -2.5460 hc        1 MOL     -0.030523
     97 H41        -0.1090    6.0830   -0.0320 ha        1 MOL      0.140990
     98 H42        -2.2420    4.0900   -3.2000 ha        1 MOL      0.140990
     99 H43        -1.9880    7.5120    0.3850 ha        1 MOL      0.164495
    100 H44        -4.2020    5.5460   -2.8420 ha        1 MOL      0.164495
    101 H45        -4.9250    7.1500   -1.6560 ho        1 MOL      0.338023
    102 N10         3.1990    3.0750   -1.1210 n         1 MOL     -0.411247
    103 C34         4.4360    2.4140   -1.5000 c3        1 MOL      0.172483
    104 C35         5.1710    2.1100   -0.1690 c         1 MOL      0.723628
    105 O15         5.3980    0.9230    0.0710 o         1 MOL     -0.525550
    106 C36         5.3990    3.1790   -2.5070 c3        1 MOL      0.067830
    107 C37         4.5270    3.6180   -3.7200 c3        1 MOL     -0.013456
    108 C38         6.5040    2.1850   -2.8960 c3        1 MOL     -0.494690
    109 C39         4.0360    2.4890   -4.6270 c3        1 MOL      0.032366
    110 H46         3.1850    4.0540   -0.8990 hn        1 MOL      0.239890
    111 H47         4.2250    1.4040   -1.8450 h1        1 MOL     -0.014375
    112 H48         5.8380    4.1120   -2.1780 hc        1 MOL     -0.002219
    113 H49         5.1170    4.1770   -4.4500 hc        1 MOL      0.015181
    114 H50         3.6870    4.2590   -3.4660 hc        1 MOL      0.015181
    115 H51         7.0330    1.8520   -2.0070 hc        1 MOL      0.142616
    116 H52         6.2100    1.3140   -3.4930 hc        1 MOL      0.142616
    117 H53         7.2200    2.6980   -3.5350 hc        1 MOL      0.142616
    118 H54         3.3170    1.8620   -4.0970 hc        1 MOL     -0.001993
    119 H55         3.5060    2.9410   -5.4770 hc        1 MOL     -0.001993
    120 H56         4.7680    1.8160   -5.0530 hc        1 MOL     -0.001993
    121 N11         5.4740    3.1600    0.6510 n         1 MOL     -0.635954
    122 C40         5.8780    3.0270    2.0380 c3        1 MOL      0.180416
    123 C41         7.2500    2.4210    2.3300 c         1 MOL      0.252926
    124 O16         7.5030    1.9990    3.4800 o         1 MOL     -0.435433
    125 C42         5.7700    4.3370    2.8700 c3        1 MOL      0.210968
    126 O17         4.4800    4.9320    2.7540 oh        1 MOL     -0.582378
    127 H57         5.1080    4.0320    0.3040 hn        1 MOL      0.306416
    128 H58         5.1470    2.3600    2.4680 h1        1 MOL      0.110681
    129 H59         6.5520    5.0150    2.5640 h1        1 MOL      0.012576
    130 H60         5.9340    3.9420    3.8760 h1        1 MOL      0.012576
    131 H61         4.5100    5.7990    3.1650 ho        1 MOL      0.401724
    132 N12         8.0750    2.1550    1.2680 n         1 MOL     -0.232647
    133 C43         9.3120    1.3140    1.2780 c3        1 MOL      0.157454
    134 C44         9.1330   -0.1710    1.5140 c         1 MOL      0.501367
    135 O18         9.8620   -0.7500    2.3220 o         1 MOL     -0.518273
    136 C45        10.4360    1.9150    2.0940 c3        1 MOL     -0.256361
    137 H62         7.8510    2.5050    0.3540 hn        1 MOL      0.179792
    138 H63         9.7020    1.3790    0.2560 h1        1 MOL      0.027406
    139 H64        11.3870    1.4180    1.8820 hc        1 MOL      0.079486
    140 H65        10.6220    2.9680    1.9100 hc        1 MOL      0.079486
    141 H66        10.2700    1.8480    3.1710 hc        1 MOL      0.079486
    142 N13         8.0580   -0.7800    0.9540 n         1 MOL     -0.445327
    143 C46         7.6850   -2.2230    0.9990 c3        1 MOL      0.354773
    144 C47         6.9170   -2.6300   -0.3460 c         1 MOL      0.489533
    145 O19         6.4820   -1.7670   -1.0720 o         1 MOL     -0.494791
    146 C48         6.9640   -2.5870    2.3310 c3        1 MOL     -0.198420
    147 H67         7.4790   -0.1400    0.4290 hn        1 MOL      0.139705
    148 H68         8.6040   -2.7930    0.9380 h1        1 MOL     -0.050080
    149 H69         6.0250   -2.0520    2.4010 hc        1 MOL      0.064684
    150 H70         6.8250   -3.6700    2.3020 hc        1 MOL      0.064684
    151 H71         7.6040   -2.3220    3.1760 hc        1 MOL      0.064684
    152 N14         6.5950   -3.8940   -0.5250 n         1 MOL     -0.433603
    153 C49         6.2210   -4.5360   -1.7490 c3        1 MOL     -0.392483
    154 C50         6.9250   -4.1670   -3.0570 c         1 MOL      0.616769
    155 O20         6.5110   -4.3970   -4.2310 o         1 MOL     -0.509616
    156 C51         4.7340   -4.2580   -1.9120 c3        1 MOL      0.106578
    157 C52         3.8560   -4.7350   -0.6940 c3        1 MOL      0.069349
    158 C53         2.3710   -4.7670   -1.0770 c         1 MOL      0.588902
    159 O21         1.5930   -3.7910   -0.8640 o         1 MOL     -0.669501
    160 O22         1.9670   -5.8880   -1.4340 o         1 MOL     -0.669501
    161 H72         6.9970   -4.5150    0.1560 hn        1 MOL      0.318852
    162 H73         6.3410   -5.5990   -1.5820 h1        1 MOL      0.192856
    163 H74         4.3300   -4.7890   -2.7710 hc        1 MOL      0.004918
    164 H75         4.4540   -3.2450   -2.2010 hc        1 MOL      0.004918
    165 H76         3.9810   -4.0630    0.1510 hc        1 MOL     -0.030334
    166 H77         4.1160   -5.7390   -0.3680 hc        1 MOL     -0.030334
    167 N15         8.1930   -3.7200   -2.9090 n         1 MOL     -0.346371
    168 C54         8.9830   -3.0590   -3.9310 c3        1 MOL     -0.182712
    169 H78         8.3740   -2.3030   -4.4280 h1        1 MOL      0.103657
    170 H79         9.8480   -2.5830   -3.4710 h1        1 MOL      0.103657
    171 H80         9.3180   -3.7930   -4.6640 h1        1 MOL      0.103657
    172 H81         8.4040   -3.5250   -1.9400 hn        1 MOL      0.240529
    173 Ca1         0.9320   -1.2710   -1.3170 Ca        1 MOL      1.752750
    174 O23        -0.9800   -2.9180   -2.8790 oh        1 MOL     -0.813226
    175 H82        -1.0540   -3.8230   -2.5790 ho        1 MOL      0.400213
    176 H83        -1.5040   -2.8850   -3.6800 ho        1 MOL      0.400213
    177 O24         3.6290   -1.1230   -0.5270 oh        1 MOL     -0.813226
    178 H84         4.4390   -1.5300   -0.8300 ho        1 MOL      0.400213
    179 H85         3.9190   -0.3390   -0.0460 ho        1 MOL      0.400213
    180 O25        -0.0760    0.4770   -3.4070 oh        1 MOL     -0.813226
    181 H86         0.4940    0.5050   -4.1890 ho        1 MOL      0.400213
    182 H87        -0.5700    1.2990   -3.4400 ho        1 MOL      0.400213
    183 O26         1.8210   -2.1600   -3.6140 oh        1 MOL     -0.813226
    184 H88         1.1990   -2.0670   -4.3360 ho        1 MOL      0.400213
    185 H89         1.9420   -3.1130   -3.5340 ho        1 MOL      0.400213
@<TRIPOS>BOND
     1    1    2 1   
     2    1    4 1   
     3    1    5 1   
     4    1    6 1   
     5    2    3 2   
     6    2    7 1   
     7    7    8 1   
     8    7   15 1   
     9    8    9 1   
    10    8   11 1   
    11    8   16 1   
    12    9   10 2   
    13    9   19 1   
    14   11   12 1   
    15   11   17 1   
    16   11   18 1   
    17   12   13 1   
    18   12   14 1   
    19   19   20 1   
    20   19   28 1   
    21   20   21 1   
    22   20   23 1   
    23   20   29 1   
    24   21   22 2   
    25   21   41 1   
    26   23   24 1   
    27   23   30 1   
    28   23   31 1   
    29   24   25 1   
    30   24   32 1   
    31   24   33 1   
    32   25   26 1   
    33   25   34 1   
    34   25   35 1   
    35   26   27 1   
    36   26   36 1   
    37   26   37 1   
    38   27   38 1   
    39   27   39 1   
    40   27   40 1   
    41   41   42 1   
    42   41   49 1   
    43   42   43 1   
    44   42   45 1   
    45   42   50 1   
    46   43   44 2   
    47   43   53 1   
    48   45   46 1   
    49   45   51 1   
    50   45   52 1   
    51   46   47 1   
    52   46   48 1   
    53   53   54 1   
    54   53   57 1   
    55   54   55 1   
    56   54   58 1   
    57   54   59 1   
    58   55   56 2   
    59   55   60 1   
    60   60   61 1   
    61   60   68 1   
    62   61   62 1   
    63   61   64 1   
    64   61   69 1   
    65   62   63 2   
    66   62   74 1   
    67   64   65 1   
    68   64   70 1   
    69   64   71 1   
    70   65   66 1   
    71   65   67 2   
    72   66   72 1   
    73   66   73 1   
    74   74   75 1   
    75   74   78 1   
    76   75   76 1   
    77   75   79 1   
    78   75   80 1   
    79   76   77 2   
    80   76   81 1   
    81   81   82 1   
    82   81   93 1   
    83   82   83 1   
    84   82   85 1   
    85   82   94 1   
    86   83   84 2   
    87   83  102 1   
    88   85   86 1   
    89   85   95 1   
    90   85   96 1   
    91   86   87 ar  
    92   86   88 ar  
    93   87   89 ar  
    94   87   97 1   
    95   88   90 ar  
    96   88   98 1   
    97   89   91 ar  
    98   89   99 1   
    99   90   91 ar  
   100   90  100 1   
   101   91   92 1   
   102   92  101 1   
   103  102  103 1   
   104  102  110 1   
   105  103  104 1   
   106  103  106 1   
   107  103  111 1   
   108  104  105 2   
   109  104  121 1   
   110  106  107 1   
   111  106  108 1   
   112  106  112 1   
   113  107  109 1   
   114  107  113 1   
   115  107  114 1   
   116  108  115 1   
   117  108  116 1   
   118  108  117 1   
   119  109  118 1   
   120  109  119 1   
   121  109  120 1   
   122  121  122 1   
   123  121  127 1   
   124  122  123 1   
   125  122  125 1   
   126  122  128 1   
   127  123  124 2   
   128  123  132 1   
   129  125  126 1   
   130  125  129 1   
   131  125  130 1   
   132  126  131 1   
   133  132  133 1   
   134  132  137 1   
   135  133  134 1   
   136  133  136 1   
   137  133  138 1   
   138  134  135 2   
   139  134  142 1   
   140  136  139 1   
   141  136  140 1   
   142  136  141 1   
   143  142  143 1   
   144  142  147 1   
   145  143  144 1   
   146  143  146 1   
   147  143  148 1   
   148  144  145 2   
   149  144  152 1   
   150  146  149 1   
   151  146  150 1   
   152  146  151 1   
   153  152  153 1   
   154  152  161 1   
   155  153  154 1   
   156  153  156 1   
   157  153  162 1   
   158  154  155 2   
   159  154  167 1   
   160  156  157 1   
   161  156  163 1   
   162  156  164 1   
   163  157  158 1   
   164  157  165 1   
   165  157  166 1   
   166  158  159 1   
   167  158  160 1   
   168  167  168 1   
   169  167  172 1   
   170  168  169 1   
   171  168  170 1   
   172  168  171 1   
   173  174  175 1   
   174  174  176 1   
   175  177  178 1   
   176  177  179 1   
   177  180  181 1   
   178  180  182 1   
   179  183  184 1   
   180  183  185 1   
@<TRIPOS>SUBSTRUCTURE
     1 MOL         1 TEMP              0 ****  ****    0 ROOT
