@<TRIPOS>MOLECULE
MOL
  195   189     1     0     0
SMALL
resp


@<TRIPOS>ATOM
      1 C1          1.5310   -5.9150   -0.0500 c3        1 MOL     -0.559474
      2 C2          0.9080   -4.4920   -0.1610 c         1 MOL      0.641463
      3 O1          1.6510   -3.6030   -0.5050 o         1 MOL     -0.619730
      4 H1          2.2300   -6.0710   -0.8720 hc        1 MOL      0.156027
      5 H2          2.0600   -6.0090    0.8990 hc        1 MOL      0.156027
      6 H3          0.7400   -6.6640   -0.1000 hc        1 MOL      0.156027
      7 N1         -0.3720   -4.0970    0.0200 n         1 MOL     -0.200698
      8 C3         -1.5190   -4.7970    0.5970 c3        1 MOL     -0.156252
      9 C4         -2.6180   -5.1690   -0.3870 c         1 MOL      0.493310
     10 O2         -3.5830   -5.8450   -0.0270 o         1 MOL     -0.534519
     11 C5         -1.9500   -3.8800    1.7690 c3        1 MOL     -0.035544
     12 C6         -0.8150   -3.7050    2.7280 c         1 MOL      0.692307
     13 O3         -0.4360   -4.6420    3.4710 o         1 MOL     -0.751570
     14 O4         -0.1260   -2.6540    2.6960 o         1 MOL     -0.751570
     15 H4         -0.4860   -3.1180   -0.2050 hn        1 MOL      0.199594
     16 H5         -1.1600   -5.6960    1.0790 h1        1 MOL      0.114832
     17 H6         -2.6980   -4.4210    2.3510 hc        1 MOL      0.014993
     18 H7         -2.4040   -2.9580    1.4010 hc        1 MOL      0.014993
     19 N2         -2.4620   -4.8030   -1.6440 n         1 MOL     -0.256960
     20 C7         -3.2600   -5.1400   -2.8150 c3        1 MOL     -0.239542
     21 C8         -4.6290   -4.4800   -2.8460 c         1 MOL      0.519523
     22 O5         -5.4740   -4.9430   -3.6260 o         1 MOL     -0.546385
     23 C9         -2.5180   -4.8930   -4.1610 c3        1 MOL      0.201380
     24 C10        -2.5230   -3.3890   -4.6740 c3        1 MOL      0.033275
     25 C11        -1.0700   -5.3570   -4.0360 c3        1 MOL     -0.241112
     26 C12        -1.5920   -2.8850   -5.8580 c3        1 MOL     -0.194964
     27 H8         -1.6900   -4.2240   -1.9570 hn        1 MOL      0.127265
     28 H9         -3.5270   -6.2010   -2.7550 h1        1 MOL      0.123838
     29 H10        -2.9690   -5.5950   -4.8550 hc        1 MOL     -0.007220
     30 H11        -2.3090   -2.7690   -3.8050 hc        1 MOL      0.027200
     31 H12        -3.5780   -3.1970   -4.9020 hc        1 MOL      0.027200
     32 H13        -0.3950   -4.8310   -3.3540 hc        1 MOL      0.049031
     33 H14        -0.9740   -6.4350   -3.9240 hc        1 MOL      0.049031
     34 H15        -0.6330   -5.1720   -5.0170 hc        1 MOL      0.049031
     35 H16        -1.9810   -1.9200   -6.1920 hc        1 MOL      0.045142
     36 H17        -0.5610   -2.7640   -5.5490 hc        1 MOL      0.045142
     37 H18        -1.6770   -3.5800   -6.6950 hc        1 MOL      0.045142
     38 N3         -4.7890   -3.4020   -2.0000 n         1 MOL     -0.183962
     39 C13        -6.0660   -2.7760   -1.7930 c3        1 MOL     -0.109248
     40 C14        -6.0930   -2.2610   -0.3120 c         1 MOL      0.479048
     41 O6         -5.0220   -2.2720    0.2840 o         1 MOL     -0.442914
     42 C15        -6.2980   -1.7030   -2.7840 c3        1 MOL     -0.133735
     43 C16        -7.7310   -1.2580   -2.9060 c         1 MOL      0.708092
     44 O7         -8.5810   -2.0250   -3.4760 o         1 MOL     -0.709296
     45 O8         -8.0930   -0.1640   -2.3050 o         1 MOL     -0.709296
     46 H19        -4.0690   -3.0190   -1.4030 hn        1 MOL      0.164512
     47 H20        -6.8940   -3.4770   -1.9230 h1        1 MOL      0.084478
     48 H21        -5.9490   -2.1010   -3.7320 hc        1 MOL      0.014048
     49 H22        -5.6600   -0.8630   -2.5240 hc        1 MOL      0.014048
     50 N4         -7.2190   -1.7110    0.1510 n         1 MOL     -0.457749
     51 C17        -7.2680   -0.9390    1.4120 c3        1 MOL     -0.086924
     52 C18        -6.5810    0.4890    1.2380 c         1 MOL      0.431356
     53 O9         -5.7890    0.9590    2.0430 o         1 MOL     -0.535454
     54 H23        -8.0680   -1.8260   -0.3900 hn        1 MOL      0.323978
     55 H24        -6.6310   -1.4130    2.1610 h1        1 MOL      0.084767
     56 H25        -8.3030   -0.8960    1.7720 h1        1 MOL      0.084767
     57 N5         -6.9030    1.0570    0.0330 n         1 MOL     -0.214100
     58 C19        -6.5950    2.4280   -0.5010 c3        1 MOL      0.066381
     59 C20        -5.6070    2.3470   -1.5960 c         1 MOL      0.497167
     60 O10        -5.8460    1.7600   -2.6360 o         1 MOL     -0.522881
     61 C21        -7.8420    3.2040   -0.9680 c3        1 MOL     -0.287044
     62 C22        -8.9370    3.1860    0.1260 c         1 MOL      0.638559
     63 O11        -8.6780    3.4890    1.3220 o         1 MOL     -0.649617
     64 O12       -10.0790    2.7770   -0.1250 o         1 MOL     -0.649617
     65 H26        -7.4580    0.4590   -0.5640 hn        1 MOL      0.299894
     66 H27        -6.1680    3.0330    0.2920 h1        1 MOL      0.049537
     67 H28        -8.2010    2.8060   -1.9180 hc        1 MOL      0.075626
     68 H29        -7.4770    4.2140   -1.1780 hc        1 MOL      0.075626
     69 N6         -4.3770    2.8660   -1.5590 n         1 MOL     -0.463798
     70 C23        -3.6360    3.5340   -0.4800 c3        1 MOL      0.028287
     71 C24        -3.2830    4.9670   -0.8120 c         1 MOL      0.689882
     72 O13        -3.2270    5.3300   -1.9370 o         1 MOL     -0.565596
     73 H30        -3.9650    2.8130   -2.4860 hn        1 MOL      0.258616
     74 H31        -2.7170    2.9680   -0.3390 h1        1 MOL      0.089954
     75 H32        -4.2020    3.4710    0.4530 h1        1 MOL      0.089954
     76 N7         -2.8440    5.8320    0.1430 n         1 MOL     -0.710655
     77 C25        -2.4420    5.6410    1.5090 c3        1 MOL      0.262604
     78 C26        -1.5640    4.3450    1.7590 c         1 MOL      0.347374
     79 O14        -1.8510    3.5570    2.5960 o         1 MOL     -0.446410
     80 C27        -3.5790    6.0410    2.5730 c3        1 MOL      0.035218
     81 C28        -2.9330    6.2170    3.9440 c3        1 MOL     -0.268679
     82 C29        -3.9210    6.2990    5.0800 c         1 MOL      0.749542
     83 N8         -3.4910    6.3330    6.3300 n         1 MOL     -0.852158
     84 O15        -5.0960    6.1970    4.8890 o         1 MOL     -0.536921
     85 H33        -2.6160    6.7310   -0.2530 hn        1 MOL      0.321546
     86 H34        -1.7350    6.3850    1.8680 h1        1 MOL      0.017918
     87 H35        -4.4260    5.3570    2.5300 hc        1 MOL      0.021479
     88 H36        -4.0570    6.9650    2.2240 hc        1 MOL      0.021479
     89 H37        -2.3180    7.1140    3.8370 hc        1 MOL      0.047692
     90 H38        -2.2450    5.4060    4.1710 hc        1 MOL      0.047692
     91 H39        -2.5010    6.2680    6.5400 hn        1 MOL      0.358277
     92 H40        -4.1760    6.3680    7.0650 hn        1 MOL      0.358277
     93 N9         -0.5640    4.0640    0.8430 n         1 MOL     -0.465845
     94 C30         0.1160    2.7190    0.7860 c3        1 MOL     -0.013424
     95 C31         0.2420    2.3020   -0.7240 c         1 MOL      0.434835
     96 O16         0.1130    3.1330   -1.5730 o         1 MOL     -0.492151
     97 C32         1.5310    2.7690    1.4350 c3        1 MOL      0.289134
     98 C33         1.4780    3.2590    2.9120 c3        1 MOL     -0.204380
     99 C34         2.5110    3.6330    0.6540 c3        1 MOL     -0.204380
    100 H41        -0.3940    4.6690    0.0540 hn        1 MOL      0.285346
    101 H42        -0.3890    1.8870    1.2850 h1        1 MOL      0.105266
    102 H43         1.9660    1.7730    1.3580 hc        1 MOL     -0.020289
    103 H44         1.4310    4.3410    2.9980 hc        1 MOL      0.047269
    104 H45         0.6130    2.7780    3.3880 hc        1 MOL      0.047269
    105 H46         2.3520    2.9700    3.4870 hc        1 MOL      0.047269
    106 H47         3.4270    3.6080    1.2570 hc        1 MOL      0.047269
    107 H48         2.7110    3.3120   -0.3720 hc        1 MOL      0.047269
    108 H49         2.1640    4.6590    0.5880 hc        1 MOL      0.047269
    109 N10         0.4930    1.0130   -1.0980 n         1 MOL     -0.352923
    110 C35         0.5100    0.6030   -2.5250 c3        1 MOL     -0.033566
    111 C36         1.8820    0.6940   -3.2330 c         1 MOL      0.543491
    112 O17         2.0220    0.2490   -4.3700 o         1 MOL     -0.552496
    113 C37        -0.0810   -0.8370   -2.5910 c3        1 MOL      0.001069
    114 C38        -1.4540   -0.9710   -1.9450 c         1 MOL      0.433243
    115 N11        -2.4260   -0.1260   -2.2860 n         1 MOL     -0.766584
    116 O18        -1.7470   -1.8450   -1.1660 o         1 MOL     -0.387548
    117 H50         0.6590    0.2680   -0.4480 hn        1 MOL      0.295367
    118 H51        -0.1220    1.2700   -3.1160 h1        1 MOL      0.106769
    119 H52         0.5810   -1.5290   -2.0630 hc        1 MOL      0.049086
    120 H53        -0.2360   -1.1380   -3.6230 hc        1 MOL      0.049086
    121 H54        -2.3350    0.6210   -2.9530 hn        1 MOL      0.381077
    122 H55        -3.3270   -0.3340   -1.8740 hn        1 MOL      0.381077
    123 N12         2.8990    1.3200   -2.5900 n         1 MOL     -0.279165
    124 C39         4.3180    1.3680   -2.9770 c3        1 MOL     -0.031690
    125 C40         5.2440    1.3310   -1.7200 c         1 MOL      0.964301
    126 O19         4.7720    1.7210   -0.6800 o         1 MOL     -0.575096
    127 C41         4.6120    2.5780   -3.8890 c3        1 MOL      0.061095
    128 C42         4.7400    3.8740   -3.1150 ca        1 MOL      0.118696
    129 C43         6.0520    4.4830   -2.9320 ca        1 MOL     -0.264301
    130 C44         3.5870    4.6190   -2.8840 ca        1 MOL     -0.264301
    131 C45         6.1460    5.7560   -2.3520 ca        1 MOL     -0.109917
    132 C46         3.7270    5.9050   -2.3690 ca        1 MOL     -0.109917
    133 C47         4.9600    6.4180   -2.0530 ca        1 MOL      0.154576
    134 O20         5.0700    7.6000   -1.3650 oh        1 MOL     -0.438816
    135 H56         2.7120    1.6460   -1.6480 hn        1 MOL      0.042628
    136 H57         4.6490    0.5160   -3.5580 h1        1 MOL      0.037532
    137 H58         3.9260    2.7150   -4.7270 hc        1 MOL     -0.007327
    138 H59         5.5760    2.4040   -4.3820 hc        1 MOL     -0.007327
    139 H60         6.9710    3.9570   -3.1490 ha        1 MOL      0.155482
    140 H61         2.6910    4.0830   -3.1640 ha        1 MOL      0.155482
    141 H62         7.0670    6.3080   -2.1840 ha        1 MOL      0.129224
    142 H63         2.8170    6.4620   -2.2180 ha        1 MOL      0.129224
    143 H64         4.2170    8.0330   -1.3450 ho        1 MOL      0.323175
    144 N13         6.4800    0.8190   -1.9200 n         1 MOL     -0.870467
    145 C48         7.4400    0.6360   -0.8470 c3        1 MOL      0.278921
    146 C49         7.7260   -0.8440   -0.5000 c         1 MOL      0.432397
    147 O21         8.7400   -1.4890   -0.7740 o         1 MOL     -0.475535
    148 C50         8.7370    1.4530   -1.0810 c3        1 MOL      0.023872
    149 C51         9.5970    1.4700    0.1270 c3        1 MOL     -0.285478
    150 C52        10.8700    2.3290   -0.2040 c         1 MOL      0.674924
    151 O22        12.0200    1.8000   -0.4120 o         1 MOL     -0.720688
    152 O23        10.6940    3.5720   -0.3230 o         1 MOL     -0.720688
    153 H65         6.6640    0.2890   -2.7570 hn        1 MOL      0.375488
    154 H66         6.9510    1.0630    0.0270 h1        1 MOL     -0.010574
    155 H67         8.5460    2.5010   -1.3220 hc        1 MOL      0.017932
    156 H68         9.1760    0.9520   -1.9410 hc        1 MOL      0.017932
    157 H69         9.8360    0.4450    0.4190 hc        1 MOL      0.043032
    158 H70         9.0070    1.9070    0.9280 hc        1 MOL      0.043032
    159 N14         6.6340   -1.4610    0.0320 n         1 MOL     -0.368270
    160 C53         6.4270   -2.8700    0.0650 c3        1 MOL      0.130522
    161 C54         6.0170   -3.4470   -1.2920 c         1 MOL      0.385741
    162 O24         6.4620   -4.5120   -1.6620 o         1 MOL     -0.550102
    163 C55         5.4500   -3.2440    1.1340 c3        1 MOL     -0.011166
    164 C56         5.3870   -2.2390    2.2690 c3        1 MOL     -0.235034
    165 C57         4.5900   -2.8360    3.5000 c         1 MOL      0.735264
    166 O25         5.1300   -3.5480    4.3670 o         1 MOL     -0.713566
    167 O26         3.4240   -2.3900    3.7680 o         1 MOL     -0.713566
    168 H71         5.8250   -0.8450    0.0690 hn        1 MOL      0.245869
    169 H72         7.3410   -3.3660    0.3680 h1        1 MOL      0.055550
    170 H73         5.6570   -4.2460    1.5120 hc        1 MOL      0.033136
    171 H74         4.4200   -3.2810    0.7710 hc        1 MOL      0.033136
    172 H75         4.9810   -1.3180    1.8390 hc        1 MOL      0.035130
    173 H76         6.3830   -1.8890    2.5470 hc        1 MOL      0.035130
    174 N15         5.2410   -2.6960   -2.0340 n         1 MOL     -0.090493
    175 C58         4.9150   -2.9370   -3.4230 c3        1 MOL     -0.236639
    176 H77         4.9130   -4.0100   -3.6130 h1        1 MOL      0.096878
    177 H78         3.9290   -2.5270   -3.6410 h1        1 MOL      0.096878
    178 H79         5.6580   -2.4570   -4.0600 h1        1 MOL      0.096878
    179 H80         5.0910   -1.7530   -1.6980 hn        1 MOL      0.098407
    180 Ca1         1.2210   -3.1800    4.9380 Ca        1 MOL      1.769863
    181 O27         0.9770   -0.6240    4.2640 oh        1 MOL     -0.865194
    182 H81         0.1370   -0.3660    3.8650 ho        1 MOL      0.405604
    183 H82         1.2250    0.1330    4.7980 ho        1 MOL      0.405604
    184 O28        -0.7410   -2.1890    6.3770 oh        1 MOL     -0.865194
    185 H83        -1.6710   -2.3350    6.1680 ho        1 MOL      0.405604
    186 H84        -0.7580   -1.6720    7.1770 ho        1 MOL      0.405604
    187 O29         0.6440   -4.8920    6.9740 oh        1 MOL     -0.865194
    188 H85         0.1710   -4.9450    7.8040 ho        1 MOL      0.405604
    189 H86         1.2070   -5.6690    6.9770 ho        1 MOL      0.405604
    190 O30         2.2910   -2.1180    7.0990 oh        1 MOL     -0.865194
    191 H87         1.8060   -1.8740    7.8950 ho        1 MOL      0.405604
    192 H88         3.1870   -1.8090    7.2630 ho        1 MOL      0.405604
    193 O31         2.5160   -5.4780    4.6820 oh        1 MOL     -0.865194
    194 H89         3.1830   -5.5480    5.3640 ho        1 MOL      0.405604
    195 H90         2.4370   -6.3600    4.3300 ho        1 MOL      0.405604
@<TRIPOS>BOND
     1    1    2 1   
     2    1    4 1   
     3    1    5 1   
     4    1    6 1   
     5    2    3 2   
     6    2    7 1   
     7    7    8 1   
     8    7   15 1   
     9    8    9 1   
    10    8   11 1   
    11    8   16 1   
    12    9   10 2   
    13    9   19 1   
    14   11   12 1   
    15   11   17 1   
    16   11   18 1   
    17   12   13 1   
    18   12   14 1   
    19   19   20 1   
    20   19   27 1   
    21   20   21 1   
    22   20   23 1   
    23   20   28 1   
    24   21   22 2   
    25   21   38 1   
    26   23   24 1   
    27   23   25 1   
    28   23   29 1   
    29   24   26 1   
    30   24   30 1   
    31   24   31 1   
    32   25   32 1   
    33   25   33 1   
    34   25   34 1   
    35   26   35 1   
    36   26   36 1   
    37   26   37 1   
    38   38   39 1   
    39   38   46 1   
    40   39   40 1   
    41   39   42 1   
    42   39   47 1   
    43   40   41 2   
    44   40   50 1   
    45   42   43 1   
    46   42   48 1   
    47   42   49 1   
    48   43   44 1   
    49   43   45 1   
    50   50   51 1   
    51   50   54 1   
    52   51   52 1   
    53   51   55 1   
    54   51   56 1   
    55   52   53 2   
    56   52   57 1   
    57   57   58 1   
    58   57   65 1   
    59   58   59 1   
    60   58   61 1   
    61   58   66 1   
    62   59   60 2   
    63   59   69 1   
    64   61   62 1   
    65   61   67 1   
    66   61   68 1   
    67   62   63 1   
    68   62   64 1   
    69   69   70 1   
    70   69   73 1   
    71   70   71 1   
    72   70   74 1   
    73   70   75 1   
    74   71   72 2   
    75   71   76 1   
    76   76   77 1   
    77   76   85 1   
    78   77   78 1   
    79   77   80 1   
    80   77   86 1   
    81   78   79 2   
    82   78   93 1   
    83   80   81 1   
    84   80   87 1   
    85   80   88 1   
    86   81   82 1   
    87   81   89 1   
    88   81   90 1   
    89   82   83 1   
    90   82   84 2   
    91   83   91 1   
    92   83   92 1   
    93   93   94 1   
    94   93  100 1   
    95   94   95 1   
    96   94   97 1   
    97   94  101 1   
    98   95   96 2   
    99   95  109 1   
   100   97   98 1   
   101   97   99 1   
   102   97  102 1   
   103   98  103 1   
   104   98  104 1   
   105   98  105 1   
   106   99  106 1   
   107   99  107 1   
   108   99  108 1   
   109  109  110 1   
   110  109  117 1   
   111  110  111 1   
   112  110  113 1   
   113  110  118 1   
   114  111  112 2   
   115  111  123 1   
   116  113  114 1   
   117  113  119 1   
   118  113  120 1   
   119  114  115 1   
   120  114  116 2   
   121  115  121 1   
   122  115  122 1   
   123  123  124 1   
   124  123  135 1   
   125  124  125 1   
   126  124  127 1   
   127  124  136 1   
   128  125  126 2   
   129  125  144 1   
   130  127  128 1   
   131  127  137 1   
   132  127  138 1   
   133  128  129 ar  
   134  128  130 ar  
   135  129  131 ar  
   136  129  139 1   
   137  130  132 ar  
   138  130  140 1   
   139  131  133 ar  
   140  131  141 1   
   141  132  133 ar  
   142  132  142 1   
   143  133  134 1   
   144  134  143 1   
   145  144  145 1   
   146  144  153 1   
   147  145  146 1   
   148  145  148 1   
   149  145  154 1   
   150  146  147 2   
   151  146  159 1   
   152  148  149 1   
   153  148  155 1   
   154  148  156 1   
   155  149  150 1   
   156  149  157 1   
   157  149  158 1   
   158  150  151 1   
   159  150  152 1   
   160  159  160 1   
   161  159  168 1   
   162  160  161 1   
   163  160  163 1   
   164  160  169 1   
   165  161  162 2   
   166  161  174 1   
   167  163  164 1   
   168  163  170 1   
   169  163  171 1   
   170  164  165 1   
   171  164  172 1   
   172  164  173 1   
   173  165  166 1   
   174  165  167 1   
   175  174  175 1   
   176  174  179 1   
   177  175  176 1   
   178  175  177 1   
   179  175  178 1   
   180  181  182 1   
   181  181  183 1   
   182  184  185 1   
   183  184  186 1   
   184  187  188 1   
   185  187  189 1   
   186  190  191 1   
   187  190  192 1   
   188  193  194 1   
   189  193  195 1   
@<TRIPOS>SUBSTRUCTURE
     1 MOL         1 TEMP              0 ****  ****    0 ROOT
