@<TRIPOS>MOLECULE
MOL
  178   175     1     0     0
SMALL
resp


@<TRIPOS>ATOM
      1 C1          1.1520    7.4040   -1.9360 c3        1 MOL     -0.411735
      2 C2          2.4000    6.9150   -1.3250 c         1 MOL      0.830862
      3 O1          2.6680    7.3440   -0.2220 o         1 MOL     -0.632066
      4 H1          0.4420    7.6630   -1.1510 hc        1 MOL      0.092887
      5 H2          1.3640    8.2860   -2.5400 hc        1 MOL      0.092887
      6 H3          0.7270    6.6240   -2.5680 hc        1 MOL      0.092887
      7 N1          3.1920    6.0410   -1.9630 n         1 MOL     -0.817337
      8 C3          4.4270    5.6260   -1.3610 c3        1 MOL      0.468383
      9 C4          4.2130    4.4680   -0.3380 c         1 MOL      0.450753
     10 O2          3.7690    3.4120   -0.7460 o         1 MOL     -0.564954
     11 C5          5.4540    5.3990   -2.4620 c3        1 MOL     -0.145054
     12 C6          6.8460    5.1290   -1.8760 c         1 MOL      0.704366
     13 O3          7.0400    5.1160   -0.6740 o         1 MOL     -0.737769
     14 O4          7.7160    4.7560   -2.6660 o         1 MOL     -0.737769
     15 H4          2.9840    5.8800   -2.9380 hn        1 MOL      0.350416
     16 H5          4.8560    6.4700   -0.8120 h1        1 MOL     -0.052602
     17 H6          5.5740    6.2360   -3.1530 hc        1 MOL     -0.009981
     18 H7          5.1330    4.6100   -3.1400 hc        1 MOL     -0.009981
     19 N2          4.7140    4.6590    0.8790 n         1 MOL     -0.315343
     20 C7          4.7070    3.7420    2.0280 c3        1 MOL      0.008712
     21 C8          3.2720    3.4920    2.5520 c         1 MOL      0.573005
     22 O5          2.3170    4.2250    2.3980 o         1 MOL     -0.553369
     23 C9          5.6980    4.2770    3.0380 c3        1 MOL     -0.106754
     24 H8          4.9180    5.6270    1.0430 hn        1 MOL      0.238264
     25 H9          5.1060    2.8270    1.5970 h1        1 MOL      0.208270
     26 H10         6.5380    4.8640    2.6760 hc        1 MOL      0.030314
     27 H11         5.1780    4.9730    3.6850 hc        1 MOL      0.030314
     28 H12         6.0900    3.5100    3.7130 hc        1 MOL      0.030314
     29 N3          3.0640    2.3840    3.2980 n         1 MOL     -0.438402
     30 C10         3.9620    1.2910    3.6650 c3        1 MOL     -0.080590
     31 C11         4.4030    0.4180    2.4780 c         1 MOL     -0.019979
     32 O6          3.7260    0.3890    1.4970 o         1 MOL     -0.306133
     33 C12         3.4980    0.3400    4.8230 c3        1 MOL     -0.118183
     34 C13         1.9580    0.0790    4.7330 c         1 MOL      0.825406
     35 O7          1.4120    0.0530    3.6140 o         1 MOL     -0.715449
     36 O8          1.3890   -0.3000    5.7490 o         1 MOL     -0.715449
     37 H13         2.1720    2.4080    3.7740 hn        1 MOL      0.261422
     38 H14         4.8360    1.7940    4.0790 h1        1 MOL      0.147522
     39 H15         3.7730    0.8570    5.7360 hc        1 MOL      0.008298
     40 H16         4.0570   -0.5870    4.6850 hc        1 MOL      0.008298
     41 N4          5.4630   -0.3430    2.5930 n         1 MOL     -0.054843
     42 C14         5.9240   -1.3260    1.5810 c3        1 MOL     -0.027628
     43 C15         7.1130   -0.8240    0.7230 c         1 MOL      0.513136
     44 O9          7.7530    0.1770    0.9910 o         1 MOL     -0.505072
     45 H17         6.1120   -0.0480    3.3010 hn        1 MOL      0.178547
     46 H18         5.0610   -1.5140    0.9500 h1        1 MOL      0.053908
     47 H19         6.2020   -2.2250    2.1410 h1        1 MOL      0.053908
     48 N5          7.4170   -1.4200   -0.4350 n         1 MOL     -0.392094
     49 C16         6.8410   -2.7170   -0.8920 c3        1 MOL     -0.044463
     50 C17         5.5890   -2.6150   -1.7830 c         1 MOL      0.540398
     51 O10         5.0810   -1.4970   -1.9640 o         1 MOL     -0.453099
     52 C18         7.9890   -3.4300   -1.6160 c3        1 MOL     -0.080373
     53 C19         8.3000   -2.8230   -2.9390 c         1 MOL      0.696308
     54 N6          8.3810   -3.6600   -3.9900 n         1 MOL     -0.850824
     55 O11         8.6700   -1.6780   -3.0100 o         1 MOL     -0.497671
     56 H20         8.2760   -1.0840   -0.8350 hn        1 MOL      0.308111
     57 H21         6.6190   -3.3880   -0.0600 h1        1 MOL      0.061355
     58 H22         7.7160   -4.4740   -1.7680 hc        1 MOL      0.008788
     59 H23         8.8560   -3.3070   -0.9650 hc        1 MOL      0.008788
     60 H24         8.1260   -4.6340   -4.0000 hn        1 MOL      0.372220
     61 H25         8.5990   -3.2430   -4.8900 hn        1 MOL      0.372220
     62 N7          5.1370   -3.7550   -2.3150 n         1 MOL     -0.430987
     63 C20         4.0060   -3.7760   -3.1600 c3        1 MOL     -0.116914
     64 C21         2.6790   -4.2240   -2.6300 c         1 MOL      0.503001
     65 O12         1.6630   -4.2760   -3.3640 o         1 MOL     -0.562170
     66 H26         5.4880   -4.6840   -2.1070 hn        1 MOL      0.307882
     67 H27         4.1690   -4.4960   -3.9640 h1        1 MOL      0.105354
     68 H28         3.8990   -2.8230   -3.6800 h1        1 MOL      0.105354
     69 N8          2.6020   -4.6110   -1.3480 n         1 MOL     -0.246107
     70 C22         1.4470   -5.1940   -0.7360 c3        1 MOL     -0.047432
     71 C23         0.3380   -4.0970   -0.6660 c         1 MOL      0.477293
     72 O13         0.6320   -2.9530   -0.2370 o         1 MOL     -0.559315
     73 C24         1.7870   -5.8560    0.6050 c3        1 MOL      0.334386
     74 C25         0.5350   -6.3820    1.3310 c3        1 MOL     -0.290076
     75 O14         2.7600   -6.8380    0.4170 oh        1 MOL     -0.637551
     76 H29         3.3990   -4.5550   -0.7330 hn        1 MOL      0.168642
     77 H30         1.0280   -6.0410   -1.2760 h1        1 MOL      0.084144
     78 H31         2.2900   -5.1000    1.2080 h1        1 MOL     -0.025322
     79 H32         3.0070   -7.0790    1.3200 ho        1 MOL      0.391511
     80 H33         0.7470   -7.1110    2.1120 hc        1 MOL      0.083284
     81 H34        -0.0810   -5.6020    1.7630 hc        1 MOL      0.083284
     82 H35        -0.0690   -6.8560    0.5530 hc        1 MOL      0.083284
     83 N9         -0.8870   -4.4020   -1.0830 n         1 MOL     -0.164159
     84 C26        -2.0340   -3.5300   -1.0440 c3        1 MOL     -0.220363
     85 C27        -2.7340   -3.7140    0.3630 c         1 MOL      0.436673
     86 O15        -3.0800   -4.8460    0.7580 o         1 MOL     -0.538424
     87 C28        -3.0260   -3.9260   -2.1650 c3        1 MOL      0.168716
     88 C29        -4.0940   -2.7860   -2.2930 c3        1 MOL      0.013240
     89 C30        -2.3220   -3.9790   -3.5560 c3        1 MOL     -0.233945
     90 C31        -5.3740   -3.1490   -3.1100 c3        1 MOL     -0.180767
     91 H36        -1.1010   -5.2760   -1.5460 hn        1 MOL      0.200012
     92 H37        -1.6720   -2.5100   -1.1640 h1        1 MOL      0.149063
     93 H38        -3.4310   -4.9230   -1.9580 hc        1 MOL      0.017105
     94 H39        -3.6010   -2.0090   -2.8910 hc        1 MOL      0.008212
     95 H40        -4.4510   -2.3340   -1.3660 hc        1 MOL      0.008212
     96 H41        -1.5970   -4.7870   -3.6740 hc        1 MOL      0.058702
     97 H42        -3.0000   -4.1010   -4.3890 hc        1 MOL      0.058702
     98 H43        -1.7410   -3.0660   -3.6930 hc        1 MOL      0.058702
     99 H44        -5.0260   -3.5890   -4.0440 hc        1 MOL      0.033129
    100 H45        -5.9330   -4.0050   -2.7530 hc        1 MOL      0.033129
    101 H46        -5.9960   -2.2820   -3.3530 hc        1 MOL      0.033129
    102 N10        -3.0090   -2.5450    0.9770 n         1 MOL     -0.330130
    103 C32        -3.7130   -2.4410    2.2950 c3        1 MOL      0.080254
    104 C33        -4.9820   -1.5840    2.3380 c         1 MOL      0.564430
    105 O16        -5.6320   -1.5510    3.3900 o         1 MOL     -0.566407
    106 C34        -2.7370   -1.9040    3.3770 c3        1 MOL     -0.044386
    107 C35        -1.3430   -2.5630    3.4790 c         1 MOL      0.786568
    108 O17        -1.1920   -3.5070    4.3220 o         1 MOL     -0.719439
    109 O18        -0.3860   -2.1690    2.7990 o         1 MOL     -0.719439
    110 H47        -2.7910   -1.6390    0.5740 hn        1 MOL      0.180578
    111 H48        -4.0300   -3.4400    2.5880 h1        1 MOL      0.069725
    112 H49        -3.2960   -2.0580    4.3050 hc        1 MOL     -0.024781
    113 H50        -2.5740   -0.8580    3.1100 hc        1 MOL     -0.024781
    114 N11        -5.3060   -0.8740    1.2870 n         1 MOL     -0.669309
    115 C36        -6.5470   -0.0590    1.2410 c3        1 MOL      0.287012
    116 C37        -6.4240    1.3010    0.5870 c         1 MOL      0.243231
    117 O19        -6.9690    1.5250   -0.4950 o         1 MOL     -0.397822
    118 C38        -7.5110   -0.9220    0.4330 c3        1 MOL     -0.176619
    119 C39        -8.9460   -0.5190    0.1640 ca        1 MOL      0.049014
    120 C40        -9.5730   -0.8230   -1.0740 ca        1 MOL     -0.135996
    121 C41        -9.7440    0.2100    1.1150 ca        1 MOL     -0.135996
    122 C42       -10.8450   -0.3720   -1.3950 ca        1 MOL     -0.096311
    123 C43       -11.0220    0.6510    0.8630 ca        1 MOL     -0.096311
    124 C44       -11.5950    0.3850   -0.4020 ca        1 MOL     -0.190235
    125 H51        -4.6080   -0.5540    0.6400 hn        1 MOL      0.504765
    126 H52        -6.9130    0.0870    2.2540 h1        1 MOL      0.037209
    127 H53        -7.5900   -1.9370    0.8430 hc        1 MOL      0.083939
    128 H54        -7.0610   -1.2620   -0.5020 hc        1 MOL      0.083939
    129 H55        -9.1090   -1.3890   -1.8710 ha        1 MOL      0.103500
    130 H56        -9.3310    0.3930    2.1020 ha        1 MOL      0.103500
    131 H57       -11.2680   -0.6610   -2.3470 ha        1 MOL      0.101271
    132 H58       -11.6190    1.1370    1.6250 ha        1 MOL      0.101271
    133 H59       -12.5740    0.7970   -0.6430 ha        1 MOL      0.109159
    134 N12        -5.5460    2.1520    1.1950 n         1 MOL     -0.111868
    135 C45        -5.2870    3.5540    0.7020 c3        1 MOL     -0.022646
    136 C46        -4.8150    3.7000   -0.7390 c         1 MOL      0.267957
    137 O20        -5.0890    4.6940   -1.3960 o         1 MOL     -0.487831
    138 C47        -4.1970    4.1710    1.5470 c3        1 MOL     -0.061813
    139 C48        -4.4710    3.3800    2.8400 c3        1 MOL     -0.049937
    140 C49        -4.8890    1.9840    2.5020 c3        1 MOL      0.000905
    141 H60        -6.2240    4.0900    0.8420 h1        1 MOL      0.085330
    142 H61        -3.2510    3.9030    1.0930 hc        1 MOL      0.069540
    143 H62        -4.3830    5.2240    1.7550 hc        1 MOL      0.069540
    144 H63        -3.5480    3.3330    3.4230 hc        1 MOL      0.027521
    145 H64        -5.2120    3.8040    3.5200 hc        1 MOL      0.027521
    146 H65        -4.1070    1.2290    2.5400 h1        1 MOL      0.066455
    147 H66        -5.5460    1.6000    3.2790 h1        1 MOL      0.066455
    148 N13        -4.1670    2.6710   -1.3010 n         1 MOL      0.016042
    149 C50        -3.7930    2.6500   -2.7010 c3        1 MOL     -0.373882
    150 C51        -5.1280    2.6540   -3.6120 c         1 MOL      0.534682
    151 O21        -5.0890    3.2260   -4.7330 o         1 MOL     -0.577453
    152 C52        -2.9670    1.4010   -2.9510 c3        1 MOL      0.195914
    153 C53        -1.7200    1.1110   -2.0980 c3        1 MOL     -0.454991
    154 C54        -1.9360    0.3570   -0.7620 c         1 MOL      0.862299
    155 O22        -0.9640   -0.1040   -0.1020 o         1 MOL     -0.757822
    156 O23        -3.1010    0.1750   -0.3830 o         1 MOL     -0.757822
    157 H67        -4.1530    1.7920   -0.7950 hn        1 MOL      0.151128
    158 H68        -3.1370    3.4880   -2.9440 h1        1 MOL      0.164479
    159 H69        -2.6050    1.4010   -3.9830 hc        1 MOL     -0.009130
    160 H70        -3.6460    0.5500   -2.8810 hc        1 MOL     -0.009130
    161 H71        -1.1680    2.0270   -1.9390 hc        1 MOL      0.133121
    162 H72        -1.1910    0.3920   -2.7290 hc        1 MOL      0.133121
    163 N14        -6.1720    2.0010   -3.1790 n         1 MOL     -0.208801
    164 C55        -7.5110    2.0930   -3.8540 c3        1 MOL     -0.205216
    165 H73        -8.1610    2.7550   -3.2820 h1        1 MOL      0.094141
    166 H74        -7.3840    2.4910   -4.8620 h1        1 MOL      0.094141
    167 H75        -7.9600    1.1020   -3.9090 h1        1 MOL      0.094141
    168 H76        -6.1640    1.6020   -2.2470 hn        1 MOL      0.201913
    169 Ca1         1.1480   -0.8070    1.3120 Ca        1 MOL      1.716284
    170 O24         2.7170   -2.7290    2.2690 oh        1 MOL     -0.891376
    171 H77         3.5520   -3.1650    2.0890 ho        1 MOL      0.425255
    172 H78         2.4020   -3.1410    3.0740 ho        1 MOL      0.425255
    173 O25         1.2560    1.9510    0.3010 oh        1 MOL     -0.891376
    174 H79         0.6850    2.7120    0.3940 ho        1 MOL      0.425255
    175 H80         2.1270    2.3190    0.1590 ho        1 MOL      0.425255
    176 O26         2.6620   -0.7590   -0.9270 oh        1 MOL     -0.891376
    177 H81         3.5640   -0.7050   -1.2500 ho        1 MOL      0.425255
    178 H82         2.1250   -0.8230   -1.7180 ho        1 MOL      0.425255
@<TRIPOS>BOND
     1    1    2 1   
     2    1    4 1   
     3    1    5 1   
     4    1    6 1   
     5    2    3 2   
     6    2    7 1   
     7    7    8 1   
     8    7   15 1   
     9    8    9 1   
    10    8   11 1   
    11    8   16 1   
    12    9   10 2   
    13    9   19 1   
    14   11   12 1   
    15   11   17 1   
    16   11   18 1   
    17   12   13 1   
    18   12   14 1   
    19   19   20 1   
    20   19   24 1   
    21   20   21 1   
    22   20   23 1   
    23   20   25 1   
    24   21   22 2   
    25   21   29 1   
    26   23   26 1   
    27   23   27 1   
    28   23   28 1   
    29   29   30 1   
    30   29   37 1   
    31   30   31 1   
    32   30   33 1   
    33   30   38 1   
    34   31   32 2   
    35   31   41 1   
    36   33   34 1   
    37   33   39 1   
    38   33   40 1   
    39   34   35 1   
    40   34   36 1   
    41   41   42 1   
    42   41   45 1   
    43   42   43 1   
    44   42   46 1   
    45   42   47 1   
    46   43   44 2   
    47   43   48 1   
    48   48   49 1   
    49   48   56 1   
    50   49   50 1   
    51   49   52 1   
    52   49   57 1   
    53   50   51 2   
    54   50   62 1   
    55   52   53 1   
    56   52   58 1   
    57   52   59 1   
    58   53   54 1   
    59   53   55 2   
    60   54   60 1   
    61   54   61 1   
    62   62   63 1   
    63   62   66 1   
    64   63   64 1   
    65   63   67 1   
    66   63   68 1   
    67   64   65 2   
    68   64   69 1   
    69   69   70 1   
    70   69   76 1   
    71   70   71 1   
    72   70   73 1   
    73   70   77 1   
    74   71   72 2   
    75   71   83 1   
    76   73   74 1   
    77   73   75 1   
    78   73   78 1   
    79   74   80 1   
    80   74   81 1   
    81   74   82 1   
    82   75   79 1   
    83   83   84 1   
    84   83   91 1   
    85   84   85 1   
    86   84   87 1   
    87   84   92 1   
    88   85   86 2   
    89   85  102 1   
    90   87   88 1   
    91   87   89 1   
    92   87   93 1   
    93   88   90 1   
    94   88   94 1   
    95   88   95 1   
    96   89   96 1   
    97   89   97 1   
    98   89   98 1   
    99   90   99 1   
   100   90  100 1   
   101   90  101 1   
   102  102  103 1   
   103  102  110 1   
   104  103  104 1   
   105  103  106 1   
   106  103  111 1   
   107  104  105 2   
   108  104  114 1   
   109  106  107 1   
   110  106  112 1   
   111  106  113 1   
   112  107  108 1   
   113  107  109 1   
   114  114  115 1   
   115  114  125 1   
   116  115  116 1   
   117  115  118 1   
   118  115  126 1   
   119  116  117 2   
   120  116  134 1   
   121  118  119 1   
   122  118  127 1   
   123  118  128 1   
   124  119  120 ar  
   125  119  121 ar  
   126  120  122 ar  
   127  120  129 1   
   128  121  123 ar  
   129  121  130 1   
   130  122  124 ar  
   131  122  131 1   
   132  123  124 ar  
   133  123  132 1   
   134  124  133 1   
   135  134  135 1   
   136  134  140 1   
   137  135  136 1   
   138  135  138 1   
   139  135  141 1   
   140  136  137 2   
   141  136  148 1   
   142  138  139 1   
   143  138  142 1   
   144  138  143 1   
   145  139  140 1   
   146  139  144 1   
   147  139  145 1   
   148  140  146 1   
   149  140  147 1   
   150  148  149 1   
   151  148  157 1   
   152  149  150 1   
   153  149  152 1   
   154  149  158 1   
   155  150  151 2   
   156  150  163 1   
   157  152  153 1   
   158  152  159 1   
   159  152  160 1   
   160  153  154 1   
   161  153  161 1   
   162  153  162 1   
   163  154  155 1   
   164  154  156 1   
   165  163  164 1   
   166  163  168 1   
   167  164  165 1   
   168  164  166 1   
   169  164  167 1   
   170  170  171 1   
   171  170  172 1   
   172  173  174 1   
   173  173  175 1   
   174  176  177 1   
   175  176  178 1   
@<TRIPOS>SUBSTRUCTURE
     1 MOL         1 TEMP              0 ****  ****    0 ROOT
