@<TRIPOS>MOLECULE
MOL
  195   189     1     0     0
SMALL
resp


@<TRIPOS>ATOM
      1 C1          3.7360   -0.9450   -3.2330 c3        1 MOL     -0.411056
      2 C2          3.0100   -1.6600   -2.0230 c         1 MOL      0.607310
      3 O1          1.9360   -1.2630   -1.6290 o         1 MOL     -0.500390
      4 H1          3.9290    0.0970   -2.9760 hc        1 MOL      0.102243
      5 H2          4.6800   -1.4480   -3.4400 hc        1 MOL      0.102243
      6 H3          3.1000   -0.9880   -4.1170 hc        1 MOL      0.102243
      7 N1          3.5750   -2.7770   -1.5580 n         1 MOL     -0.207412
      8 C3          3.0480   -3.5280   -0.4040 c3        1 MOL     -0.020080
      9 C4          1.5500   -3.8690   -0.4250 c         1 MOL      0.607223
     10 O2          0.8240   -3.8120    0.6230 o         1 MOL     -0.485866
     11 C5          3.6320   -3.0860    0.9600 c3        1 MOL     -0.499382
     12 C6          5.1660   -3.0920    0.9930 c         1 MOL      1.009336
     13 O3          5.7000   -2.6640    2.0090 o         1 MOL     -0.781906
     14 O4          5.8830   -3.6610    0.1220 o         1 MOL     -0.781906
     15 H4          4.5350   -2.9530   -1.8270 hn        1 MOL      0.115653
     16 H5          3.5160   -4.4760   -0.6560 h1        1 MOL      0.074454
     17 H6          3.3380   -3.8570    1.6580 hc        1 MOL      0.137488
     18 H7          3.1340   -2.1610    1.2590 hc        1 MOL      0.137488
     19 N2          1.1270   -4.1710   -1.6980 n         1 MOL     -0.482970
     20 C7         -0.1950   -4.6540   -2.0360 c3        1 MOL     -0.106904
     21 C8         -0.5650   -6.0150   -1.3790 c         1 MOL      0.446567
     22 O5          0.3450   -6.8490   -1.1880 o         1 MOL     -0.568982
     23 C9         -0.5690   -4.4810   -3.5680 c3        1 MOL      0.426533
     24 C10         0.1330   -5.4410   -4.5500 c3        1 MOL     -0.041279
     25 C11        -0.2660   -3.0660   -3.9840 c3        1 MOL     -0.138005
     26 C12        -0.6640   -5.7900   -5.8300 c3        1 MOL     -0.232308
     27 H8          1.8430   -4.1620   -2.4070 hn        1 MOL      0.200007
     28 H9         -0.8570   -3.9260   -1.5660 h1        1 MOL      0.120260
     29 H10        -1.6260   -4.7250   -3.5970 hc        1 MOL     -0.015560
     30 H11         0.1270   -6.3750   -3.9950 hc        1 MOL      0.009868
     31 H12         1.1520   -5.1500   -4.8320 hc        1 MOL      0.009868
     32 H13        -0.8470   -2.3440   -3.4050 hc        1 MOL      0.014310
     33 H14         0.8000   -2.8590   -4.0370 hc        1 MOL      0.014310
     34 H15        -0.6960   -3.0710   -4.9880 hc        1 MOL      0.014310
     35 H16        -0.2150   -6.6930   -6.2480 hc        1 MOL      0.049616
     36 H17        -1.6870   -6.0390   -5.5770 hc        1 MOL      0.049616
     37 H18        -0.7320   -4.9830   -6.5680 hc        1 MOL      0.049616
     38 N3         -1.7960   -6.3840   -1.0540 n         1 MOL     -0.460616
     39 C13        -3.0960   -5.6450   -1.2130 c3        1 MOL      0.196259
     40 C14        -4.0430   -5.7620   -0.0150 c         1 MOL      0.473633
     41 O6         -5.2500   -6.0430   -0.2690 o         1 MOL     -0.455833
     42 C15        -3.8920   -6.0950   -2.4720 c3        1 MOL     -0.234775
     43 C16        -4.9430   -5.1710   -2.9500 c         1 MOL      0.708483
     44 O7         -5.8160   -5.5210   -3.8680 o         1 MOL     -0.688257
     45 O8         -4.9360   -4.0080   -2.5140 o         1 MOL     -0.688257
     46 H19        -1.8400   -7.3060   -0.6410 hn        1 MOL      0.286073
     47 H20        -2.8340   -4.6200   -1.4470 h1        1 MOL      0.002104
     48 H21        -4.3760   -7.0600   -2.3470 hc        1 MOL      0.029516
     49 H22        -3.1790   -6.2020   -3.2910 hc        1 MOL      0.029516
     50 N4         -3.6480   -5.5140    1.2350 n         1 MOL     -0.394745
     51 C17        -4.4890   -5.9290    2.3810 c3        1 MOL     -0.213272
     52 C18        -5.5980   -4.8830    2.7790 c         1 MOL      0.539710
     53 O9         -6.6670   -5.2670    3.2660 o         1 MOL     -0.585609
     54 H23        -2.6570   -5.3740    1.3980 hn        1 MOL      0.300026
     55 H24        -3.8730   -6.0440    3.2660 h1        1 MOL      0.112277
     56 H25        -5.0410   -6.8240    2.1030 h1        1 MOL      0.112277
     57 N5         -5.3450   -3.6130    2.6490 n         1 MOL     -0.261751
     58 C19        -6.0890   -2.5200    3.2710 c3        1 MOL     -0.065763
     59 C20        -7.0060   -1.7620    2.3050 c         1 MOL      0.421648
     60 O10        -8.0110   -1.2590    2.7870 o         1 MOL     -0.534832
     61 C21        -5.0540   -1.5780    4.0170 c3        1 MOL     -0.112251
     62 C22        -3.8710   -1.2070    3.0390 c         1 MOL      0.673201
     63 O11        -4.1200   -0.2430    2.3560 o         1 MOL     -0.677519
     64 O12        -2.8670   -1.9270    2.9270 o         1 MOL     -0.677519
     65 H26        -4.4290   -3.3910    2.2890 hn        1 MOL      0.184949
     66 H27        -6.5990   -2.9090    4.1580 h1        1 MOL      0.105933
     67 H28        -4.6350   -2.0550    4.9020 hc        1 MOL      0.006969
     68 H29        -5.5650   -0.6550    4.3100 hc        1 MOL      0.006969
     69 N6         -6.6170   -1.6340    1.0100 n         1 MOL     -0.088881
     70 C23        -7.3590   -0.9850   -0.0760 c3        1 MOL     -0.391285
     71 C24        -7.4590    0.5440    0.0750 c         1 MOL      0.544069
     72 O13        -8.4440    1.1760   -0.4170 o         1 MOL     -0.612158
     73 H30        -5.8010   -2.1950    0.8110 hn        1 MOL      0.231777
     74 H31        -8.3880   -1.3340   -0.0690 h1        1 MOL      0.168324
     75 H32        -6.9630   -1.2060   -1.0740 h1        1 MOL      0.168324
     76 N7         -6.5660    1.1730    0.8350 n         1 MOL     -0.146541
     77 C25        -6.5620    2.5960    1.2360 c3        1 MOL     -0.003766
     78 C26        -6.6970    3.6320    0.0830 c         1 MOL      0.312421
     79 O14        -7.1440    4.6980    0.4020 o         1 MOL     -0.488426
     80 C27        -7.5540    2.8350    2.4210 c3        1 MOL      0.227207
     81 C28        -7.4770    1.9250    3.6840 c3        1 MOL     -0.345526
     82 C29        -7.6990    2.7480    4.9940 c         1 MOL      0.671204
     83 N8         -8.0440    2.0850    6.0770 n         1 MOL     -0.795648
     84 O15        -7.4740    3.9020    5.1410 o         1 MOL     -0.556217
     85 H33        -5.7940    0.6270    1.2010 hn        1 MOL      0.127921
     86 H34        -5.5350    2.6690    1.5910 h1        1 MOL      0.085989
     87 H35        -8.5970    2.7410    2.1180 hc        1 MOL     -0.028306
     88 H36        -7.5210    3.8870    2.7070 hc        1 MOL     -0.028306
     89 H37        -6.5290    1.4020    3.8120 hc        1 MOL      0.108326
     90 H38        -8.3220    1.2240    3.6420 hc        1 MOL      0.108326
     91 H39        -8.3550    1.1310    5.9590 hn        1 MOL      0.345104
     92 H40        -7.9990    2.6170    6.9360 hn        1 MOL      0.345104
     93 N9         -6.3980    3.2340   -1.1360 n         1 MOL     -0.098463
     94 C30        -6.2240    4.1440   -2.3280 c3        1 MOL     -0.061775
     95 C31        -4.7610    4.3990   -2.7360 c         1 MOL      0.481735
     96 O16        -4.4860    5.3100   -3.4900 o         1 MOL     -0.572606
     97 C32        -6.8920    3.4960   -3.5640 c3        1 MOL      0.329196
     98 C33        -6.3140    2.1150   -3.9490 c3        1 MOL     -0.382742
     99 C34        -8.4010    3.4540   -3.3860 c3        1 MOL     -0.382742
    100 H41        -6.1240    2.2620   -1.2000 hn        1 MOL      0.155335
    101 H42        -6.7720    5.0840   -2.2390 h1        1 MOL      0.084976
    102 H43        -6.6800    4.1240   -4.4330 hc        1 MOL     -0.046535
    103 H44        -6.7080    1.7320   -4.8910 hc        1 MOL      0.091042
    104 H45        -5.2180    2.0950   -3.9940 hc        1 MOL      0.091042
    105 H46        -6.5020    1.3980   -3.1560 hc        1 MOL      0.091042
    106 H47        -8.8320    3.0500   -4.3030 hc        1 MOL      0.091042
    107 H48        -8.6910    2.8710   -2.5160 hc        1 MOL      0.091042
    108 H49        -8.7600    4.4430   -3.1160 hc        1 MOL      0.091042
    109 N10        -3.7760    3.7650   -2.1500 n         1 MOL     -0.363397
    110 C35        -2.3630    3.8870   -2.3940 c3        1 MOL      0.317648
    111 C36        -1.5560    3.6010   -1.1350 c         1 MOL      0.360174
    112 O17        -2.1400    3.2810   -0.0950 o         1 MOL     -0.502153
    113 C37        -2.0170    2.8700   -3.5990 c3        1 MOL     -0.343516
    114 C38        -0.9660    1.7210   -3.3250 c         1 MOL      0.583403
    115 N11        -1.0920    0.9060   -2.3130 n         1 MOL     -0.681420
    116 O18         0.0450    1.6270   -3.9710 o         1 MOL     -0.552046
    117 H50        -3.9620    3.0000   -1.5120 hn        1 MOL      0.169195
    118 H51        -2.0200    4.8760   -2.6580 h1        1 MOL      0.042007
    119 H52        -1.7600    3.3820   -4.5290 hc        1 MOL      0.098597
    120 H53        -2.9360    2.3660   -3.9100 hc        1 MOL      0.098597
    121 H54        -1.9550    0.8860   -1.7720 hn        1 MOL      0.342905
    122 H55        -0.4240    0.1820   -2.0690 hn        1 MOL      0.342905
    123 N12        -0.2480    3.5880   -1.1910 n         1 MOL     -0.395032
    124 C39         0.6970    3.3720   -0.1180 c3        1 MOL      0.232860
    125 C40         2.0950    4.0590   -0.4460 c         1 MOL      0.387576
    126 O19         2.4280    3.9400   -1.6060 o         1 MOL     -0.542170
    127 C41         0.7970    1.9150    0.2760 c3        1 MOL     -0.037406
    128 C42         1.6500    1.6760    1.4930 ca        1 MOL     -0.079355
    129 C43         2.9990    1.2460    1.3150 ca        1 MOL     -0.000152
    130 C44         1.2110    1.9320    2.8360 ca        1 MOL     -0.000152
    131 C45         3.8640    1.0290    2.4350 ca        1 MOL     -0.423921
    132 C46         2.0660    1.7720    3.9340 ca        1 MOL     -0.423921
    133 C47         3.4430    1.3180    3.7540 ca        1 MOL      0.508268
    134 O20         4.2230    1.0570    4.7770 oh        1 MOL     -0.580347
    135 H56         0.2420    3.7350   -2.0550 hn        1 MOL      0.261061
    136 H57         0.4270    3.9230    0.7840 h1        1 MOL     -0.007773
    137 H58         1.2650    1.3030   -0.4930 hc        1 MOL      0.066434
    138 H59        -0.1970    1.5620    0.5650 hc        1 MOL      0.066434
    139 H60         3.4600    1.1220    0.3390 ha        1 MOL      0.110048
    140 H61         0.2370    2.3470    3.0500 ha        1 MOL      0.110048
    141 H62         4.9190    0.9130    2.2270 ha        1 MOL      0.176288
    142 H63         1.7120    1.9450    4.9480 ha        1 MOL      0.176288
    143 H64         4.8460    0.3600    4.5450 ho        1 MOL      0.439930
    144 N13         2.7510    4.7210    0.5060 n         1 MOL     -0.385057
    145 C48         4.0940    5.2930    0.2870 c3        1 MOL      0.272567
    146 C49         5.1370    4.4390    1.0430 c         1 MOL      0.421059
    147 O21         5.3110    4.4200    2.2140 o         1 MOL     -0.549941
    148 C50         4.1400    6.7900    0.6840 c3        1 MOL      0.032461
    149 C51         2.8920    7.6230    0.2960 c3        1 MOL     -0.273019
    150 C52         3.0550    9.0550    0.7200 c         1 MOL      0.720089
    151 O22         3.4050    9.9680   -0.1250 o         1 MOL     -0.686220
    152 O23         2.8350    9.3450    1.9420 o         1 MOL     -0.686220
    153 H65         2.2780    4.6290    1.3950 hn        1 MOL      0.257964
    154 H66         4.3130    5.2510   -0.7760 h1        1 MOL      0.053162
    155 H67         5.0520    7.2210    0.2780 hc        1 MOL      0.017128
    156 H68         4.3060    6.8780    1.7510 hc        1 MOL      0.017128
    157 H69         1.9530    7.3040    0.7570 hc        1 MOL      0.042100
    158 H70         2.6090    7.4810   -0.7440 hc        1 MOL      0.042100
    159 N14         5.8460    3.5790    0.4020 n         1 MOL     -0.384650
    160 C53         5.7790    3.1430   -1.0210 c3        1 MOL     -0.297373
    161 C54         6.1340    4.2670   -2.1280 c         1 MOL      0.286537
    162 O24         6.9830    5.1130   -1.8370 o         1 MOL     -0.494939
    163 C55         6.7830    2.0520   -1.1770 c3        1 MOL      0.892132
    164 C56         6.3860    0.6970   -0.6300 c3        1 MOL     -0.929015
    165 C57         7.4330    0.0310    0.2980 c         1 MOL      0.954366
    166 O25         7.8730   -1.1340    0.0030 o         1 MOL     -0.729982
    167 O26         7.9400    0.6860    1.2580 o         1 MOL     -0.729982
    168 H71         6.5820    3.1760    0.9660 hn        1 MOL      0.339628
    169 H72         4.7880    2.7870   -1.2970 h1        1 MOL      0.139694
    170 H73         7.7560    2.3740   -0.7830 hc        1 MOL     -0.160921
    171 H74         6.9840    1.9000   -2.2410 hc        1 MOL     -0.160921
    172 H75         6.2100    0.0060   -1.4540 hc        1 MOL      0.135731
    173 H76         5.4040    0.7480   -0.1530 hc        1 MOL      0.135731
    174 N15         5.4880    4.2400   -3.2780 n         1 MOL     -0.110318
    175 C58         5.6780    5.1590   -4.3990 c3        1 MOL     -0.195048
    176 H77         6.0580    6.1110   -4.0270 h1        1 MOL      0.088249
    177 H78         6.3930    4.7320   -5.1030 h1        1 MOL      0.088249
    178 H79         4.7250    5.3210   -4.9020 h1        1 MOL      0.088249
    179 H80         4.8560    3.4510   -3.3460 hn        1 MOL      0.206516
    180 Ca1         8.1900   -3.4910    1.1720 Ca        1 MOL      1.644165
    181 O27         7.2200   -6.2150    1.5350 oh        1 MOL     -0.797439
    182 H81         7.5750   -7.0150    1.9000 ho        1 MOL      0.365113
    183 H82         6.3400   -6.4670    1.2230 ho        1 MOL      0.365113
    184 O28         8.2740   -1.4410    2.8870 oh        1 MOL     -0.797439
    185 H83         8.1400   -1.3530    3.8340 ho        1 MOL      0.365113
    186 H84         8.0540   -0.5680    2.5380 ho        1 MOL      0.365113
    187 O29         9.7420   -5.5020   -0.0250 oh        1 MOL     -0.797439
    188 H85        10.5100   -5.4080   -0.5940 ho        1 MOL      0.365113
    189 H86         9.9270   -6.2910    0.4890 ho        1 MOL      0.365113
    190 O30        10.7580   -2.8860    1.4610 oh        1 MOL     -0.797439
    191 H87        11.1650   -2.0240    1.4980 ho        1 MOL      0.365113
    192 H88        11.4860   -3.5000    1.5830 ho        1 MOL      0.365113
    193 O31         8.6010   -4.1780    3.8000 oh        1 MOL     -0.797439
    194 H89         9.1200   -4.9670    3.9240 ho        1 MOL      0.365113
    195 H90         9.0020   -3.5160    4.3650 ho        1 MOL      0.365113
@<TRIPOS>BOND
     1    1    2 1   
     2    1    4 1   
     3    1    5 1   
     4    1    6 1   
     5    2    3 2   
     6    2    7 1   
     7    7    8 1   
     8    7   15 1   
     9    8    9 1   
    10    8   11 1   
    11    8   16 1   
    12    9   10 2   
    13    9   19 1   
    14   11   12 1   
    15   11   17 1   
    16   11   18 1   
    17   12   13 1   
    18   12   14 1   
    19   19   20 1   
    20   19   27 1   
    21   20   21 1   
    22   20   23 1   
    23   20   28 1   
    24   21   22 2   
    25   21   38 1   
    26   23   24 1   
    27   23   25 1   
    28   23   29 1   
    29   24   26 1   
    30   24   30 1   
    31   24   31 1   
    32   25   32 1   
    33   25   33 1   
    34   25   34 1   
    35   26   35 1   
    36   26   36 1   
    37   26   37 1   
    38   38   39 1   
    39   38   46 1   
    40   39   40 1   
    41   39   42 1   
    42   39   47 1   
    43   40   41 2   
    44   40   50 1   
    45   42   43 1   
    46   42   48 1   
    47   42   49 1   
    48   43   44 1   
    49   43   45 1   
    50   50   51 1   
    51   50   54 1   
    52   51   52 1   
    53   51   55 1   
    54   51   56 1   
    55   52   53 2   
    56   52   57 1   
    57   57   58 1   
    58   57   65 1   
    59   58   59 1   
    60   58   61 1   
    61   58   66 1   
    62   59   60 2   
    63   59   69 1   
    64   61   62 1   
    65   61   67 1   
    66   61   68 1   
    67   62   63 1   
    68   62   64 1   
    69   69   70 1   
    70   69   73 1   
    71   70   71 1   
    72   70   74 1   
    73   70   75 1   
    74   71   72 2   
    75   71   76 1   
    76   76   77 1   
    77   76   85 1   
    78   77   78 1   
    79   77   80 1   
    80   77   86 1   
    81   78   79 2   
    82   78   93 1   
    83   80   81 1   
    84   80   87 1   
    85   80   88 1   
    86   81   82 1   
    87   81   89 1   
    88   81   90 1   
    89   82   83 1   
    90   82   84 2   
    91   83   91 1   
    92   83   92 1   
    93   93   94 1   
    94   93  100 1   
    95   94   95 1   
    96   94   97 1   
    97   94  101 1   
    98   95   96 2   
    99   95  109 1   
   100   97   98 1   
   101   97   99 1   
   102   97  102 1   
   103   98  103 1   
   104   98  104 1   
   105   98  105 1   
   106   99  106 1   
   107   99  107 1   
   108   99  108 1   
   109  109  110 1   
   110  109  117 1   
   111  110  111 1   
   112  110  113 1   
   113  110  118 1   
   114  111  112 2   
   115  111  123 1   
   116  113  114 1   
   117  113  119 1   
   118  113  120 1   
   119  114  115 1   
   120  114  116 2   
   121  115  121 1   
   122  115  122 1   
   123  123  124 1   
   124  123  135 1   
   125  124  125 1   
   126  124  127 1   
   127  124  136 1   
   128  125  126 2   
   129  125  144 1   
   130  127  128 1   
   131  127  137 1   
   132  127  138 1   
   133  128  129 ar  
   134  128  130 ar  
   135  129  131 ar  
   136  129  139 1   
   137  130  132 ar  
   138  130  140 1   
   139  131  133 ar  
   140  131  141 1   
   141  132  133 ar  
   142  132  142 1   
   143  133  134 1   
   144  134  143 1   
   145  144  145 1   
   146  144  153 1   
   147  145  146 1   
   148  145  148 1   
   149  145  154 1   
   150  146  147 2   
   151  146  159 1   
   152  148  149 1   
   153  148  155 1   
   154  148  156 1   
   155  149  150 1   
   156  149  157 1   
   157  149  158 1   
   158  150  151 1   
   159  150  152 1   
   160  159  160 1   
   161  159  168 1   
   162  160  161 1   
   163  160  163 1   
   164  160  169 1   
   165  161  162 2   
   166  161  174 1   
   167  163  164 1   
   168  163  170 1   
   169  163  171 1   
   170  164  165 1   
   171  164  172 1   
   172  164  173 1   
   173  165  166 1   
   174  165  167 1   
   175  174  175 1   
   176  174  179 1   
   177  175  176 1   
   178  175  177 1   
   179  175  178 1   
   180  181  182 1   
   181  181  183 1   
   182  184  185 1   
   183  184  186 1   
   184  187  188 1   
   185  187  189 1   
   186  190  191 1   
   187  190  192 1   
   188  193  194 1   
   189  193  195 1   
@<TRIPOS>SUBSTRUCTURE
     1 MOL         1 TEMP              0 ****  ****    0 ROOT
