@<TRIPOS>MOLECULE
MOL
  178   175     1     0     0
SMALL
resp


@<TRIPOS>ATOM
      1 C1        -10.8550   -5.6180   -3.9450 c3        1 MOL     -0.248421
      2 C2         -9.9400   -5.2380   -2.7730 c         1 MOL      0.623661
      3 O1         -8.9520   -5.9680   -2.5610 o         1 MOL     -0.588421
      4 H1        -11.6040   -6.3320   -3.6020 hc        1 MOL      0.059030
      5 H2        -11.3510   -4.7250   -4.3240 hc        1 MOL      0.059030
      6 H3        -10.2600   -6.0700   -4.7390 hc        1 MOL      0.059030
      7 N1        -10.1660   -4.2960   -1.8690 n         1 MOL     -0.305953
      8 C3        -11.4100   -3.5200   -1.7800 c3        1 MOL     -0.017606
      9 C4        -11.7570   -3.3450   -0.2800 c         1 MOL      0.301884
     10 O2        -11.1640   -3.9230    0.6590 o         1 MOL     -0.374459
     11 C5        -11.2720   -2.2320   -2.5970 c3        1 MOL     -0.184928
     12 C6        -10.2300   -1.2560   -2.1490 c         1 MOL      0.730410
     13 O3         -9.0800   -1.3370   -2.6650 o         1 MOL     -0.757039
     14 O4        -10.5300   -0.4060   -1.2830 o         1 MOL     -0.757039
     15 H4         -9.6010   -4.3420   -1.0320 hn        1 MOL      0.264232
     16 H5        -12.2540   -3.9830   -2.2900 h1        1 MOL      0.068762
     17 H6        -12.2150   -1.6870   -2.5240 hc        1 MOL      0.024672
     18 H7        -11.0850   -2.4820   -3.6390 hc        1 MOL      0.024672
     19 N2        -12.6540   -2.4010    0.0060 n         1 MOL     -0.325337
     20 C7        -12.9410   -1.8940    1.3430 c3        1 MOL      0.231930
     21 C8        -11.7130   -1.6940    2.2250 c         1 MOL      0.350319
     22 O5        -11.6240   -2.1820    3.3670 o         1 MOL     -0.491325
     23 C9        -14.0500   -2.8230    1.9830 c3        1 MOL     -0.427567
     24 H8        -13.2090   -1.9730   -0.7230 hn        1 MOL      0.262878
     25 H9        -13.3590   -0.8930    1.2500 h1        1 MOL      0.026645
     26 H10       -13.5770   -3.7500    2.3320 hc        1 MOL      0.109476
     27 H11       -14.6100   -2.3710    2.7990 hc        1 MOL      0.109476
     28 H12       -14.8700   -2.9260    1.2660 hc        1 MOL      0.109476
     29 N3        -10.6940   -0.9450    1.7040 n         1 MOL     -0.299854
     30 C10        -9.3900   -0.6150    2.4360 c3        1 MOL      0.100602
     31 C11        -8.8500    0.6730    1.9390 c         1 MOL      0.346802
     32 O6         -9.1130    1.0530    0.7940 o         1 MOL     -0.483828
     33 C12        -8.3270   -1.7330    2.1540 c3        1 MOL     -0.175426
     34 C13        -8.1130   -2.0570    0.6560 c         1 MOL      0.722426
     35 O7         -8.1510   -3.2730    0.3240 o         1 MOL     -0.648447
     36 O8         -7.6820   -1.1950   -0.1000 o         1 MOL     -0.648447
     37 H13       -10.8610   -0.5460    0.7860 hn        1 MOL      0.193347
     38 H14        -9.6090   -0.4800    3.4920 h1        1 MOL      0.022754
     39 H15        -8.5390   -2.6890    2.6280 hc        1 MOL      0.053177
     40 H16        -7.3660   -1.3690    2.5260 hc        1 MOL      0.053177
     41 N4         -8.1630    1.4030    2.7840 n         1 MOL     -0.290932
     42 C14        -7.5100    2.6330    2.5070 c3        1 MOL     -0.310653
     43 C15        -6.3840    2.4830    1.4730 c         1 MOL      0.743940
     44 O9         -6.1470    1.4460    0.8540 o         1 MOL     -0.570090
     45 H17        -7.9270    1.0020    3.6750 hn        1 MOL      0.292996
     46 H18        -7.0870    3.0340    3.4210 h1        1 MOL      0.145777
     47 H19        -8.2810    3.3440    2.1980 h1        1 MOL      0.145777
     48 N5         -5.5600    3.5400    1.2220 n         1 MOL     -0.591714
     49 C16        -4.4750    3.6340    0.2690 c3        1 MOL      0.229351
     50 C17        -3.2200    4.2130    0.8520 c         1 MOL      0.628852
     51 O10        -3.3010    5.0190    1.7820 o         1 MOL     -0.518411
     52 C18        -4.8770    4.4900   -0.9230 c3        1 MOL     -0.371786
     53 C19        -6.1880    4.1870   -1.6960 c         1 MOL      0.843704
     54 N6         -6.4970    5.0260   -2.6630 n         1 MOL     -0.870155
     55 O11        -6.8830    3.2700   -1.4680 o         1 MOL     -0.652880
     56 H20        -5.5800    4.3320    1.8470 hn        1 MOL      0.268074
     57 H21        -4.2690    2.6400   -0.1350 h1        1 MOL      0.006251
     58 H22        -4.1440    4.5530   -1.7210 hc        1 MOL      0.080723
     59 H23        -4.8620    5.4800   -0.4690 hc        1 MOL      0.080723
     60 H24        -5.9000    5.8400   -2.7710 hn        1 MOL      0.380208
     61 H25        -7.3790    5.0210   -3.1440 hn        1 MOL      0.380208
     62 N7         -2.0630    3.8090    0.2770 n         1 MOL     -0.582570
     63 C20        -0.7510    4.1390    0.6700 c3        1 MOL      0.038590
     64 C21        -0.1930    3.3240    1.8780 c         1 MOL      0.558670
     65 O12        -0.8590    2.5420    2.5330 o         1 MOL     -0.521319
     66 H26        -2.0710    3.1770   -0.5150 hn        1 MOL      0.343360
     67 H27        -0.6600    5.2000    0.8830 h1        1 MOL      0.068400
     68 H28        -0.0500    3.9210   -0.1390 h1        1 MOL      0.068400
     69 N8          1.1400    3.4670    2.0670 n         1 MOL     -0.366413
     70 C22         2.1970    4.4670    1.6150 c3        1 MOL     -0.180277
     71 C23         3.3390    3.8860    0.7740 c         1 MOL      0.494144
     72 O13         4.1070    4.6750    0.1170 o         1 MOL     -0.548221
     73 C24         2.5970    5.4540    2.8100 c3        1 MOL      0.413074
     74 C25         1.6920    6.6300    2.9830 c3        1 MOL     -0.164387
     75 O14         2.6610    4.8020    4.0070 oh        1 MOL     -0.610660
     76 H29         1.4090    2.9220    2.8780 hn        1 MOL      0.258963
     77 H30         1.7650    5.1700    0.8970 h1        1 MOL      0.109882
     78 H31         3.5930    5.8730    2.6530 h1        1 MOL     -0.011936
     79 H32         3.3870    4.1640    3.9730 ho        1 MOL      0.394892
     80 H33         1.9760    7.3810    3.7290 hc        1 MOL      0.041518
     81 H34         1.6670    7.1280    2.0130 hc        1 MOL      0.041518
     82 H35         0.6800    6.2610    3.1650 hc        1 MOL      0.041518
     83 N9          3.4570    2.5890    0.6540 n         1 MOL     -0.330573
     84 C26         4.5270    1.7990   -0.1230 c3        1 MOL     -0.114770
     85 C27         4.7520    2.3890   -1.5500 c         1 MOL      0.730648
     86 O15         3.6960    2.5190   -2.2640 o         1 MOL     -0.634597
     87 C28         4.0590    0.3590   -0.2280 c3        1 MOL      0.010704
     88 C29         3.7060   -0.2910    1.1700 c3        1 MOL      0.077857
     89 C30         5.0650   -0.6020   -0.8560 c3        1 MOL     -0.283972
     90 C31         3.2770   -1.7630    1.0980 c3        1 MOL     -0.321445
     91 H36         2.6900    2.0510    1.0170 hn        1 MOL      0.188790
     92 H37         5.4650    1.7810    0.4270 h1        1 MOL      0.114547
     93 H38         3.1410    0.4110   -0.8180 hc        1 MOL      0.022705
     94 H39         2.9110    0.2430    1.6930 hc        1 MOL      0.011831
     95 H40         4.5620   -0.1270    1.8180 hc        1 MOL      0.011831
     96 H41         5.8230   -0.7340   -0.0950 hc        1 MOL      0.083984
     97 H42         4.7460   -1.5800   -1.2240 hc        1 MOL      0.083984
     98 H43         5.5370   -0.1000   -1.7050 hc        1 MOL      0.083984
     99 H44         2.8370   -2.0720    2.0430 hc        1 MOL      0.094285
    100 H45         2.5990   -1.8760    0.2540 hc        1 MOL      0.094285
    101 H46         4.1090   -2.4410    0.9420 hc        1 MOL      0.094285
    102 N10         5.9310    2.6420   -2.0600 n         1 MOL     -0.585207
    103 C32         7.2410    2.6580   -1.4190 c3        1 MOL      0.448900
    104 C33         8.0670    1.3520   -1.7470 c         1 MOL      0.621233
    105 O16         7.7590    0.6310   -2.6820 o         1 MOL     -0.540368
    106 C34         7.9010    3.9720   -1.8010 c3        1 MOL     -0.317485
    107 C35         7.9690    4.3990   -3.2390 c         1 MOL      0.742573
    108 O17         7.4560    3.6870   -4.1100 o         1 MOL     -0.725796
    109 O18         8.6640    5.4260   -3.5520 o         1 MOL     -0.725796
    110 H47         5.9710    2.9290   -3.0200 hn        1 MOL      0.316095
    111 H48         7.0850    2.5860   -0.3410 h1        1 MOL     -0.091713
    112 H49         8.9100    3.9860   -1.3880 hc        1 MOL      0.036238
    113 H50         7.4460    4.7900   -1.2360 hc        1 MOL      0.036238
    114 N11         9.0640    1.0550   -0.8760 n         1 MOL     -0.713463
    115 C36         9.9500   -0.0620   -1.0260 c3        1 MOL      0.354706
    116 C37        10.7160   -0.1920    0.2350 c         1 MOL      0.240824
    117 O19        11.2470    0.8490    0.7190 o         1 MOL     -0.523682
    118 C38        10.9190    0.1020   -2.2190 c3        1 MOL     -0.229214
    119 C39        11.8090   -1.0790   -2.5050 ca        1 MOL      0.037205
    120 C40        13.1690   -1.0990   -2.1020 ca        1 MOL     -0.108094
    121 C41        11.2260   -2.2940   -2.9350 ca        1 MOL     -0.108094
    122 C42        13.9510   -2.2550   -2.3000 ca        1 MOL     -0.135869
    123 C43        12.0050   -3.4530   -3.0570 ca        1 MOL     -0.135869
    124 C44        13.4100   -3.4270   -2.8230 ca        1 MOL     -0.128705
    125 H51         9.2210    1.6610   -0.0900 hn        1 MOL      0.358271
    126 H52         9.3370   -0.9500   -1.2060 h1        1 MOL      0.016034
    127 H53        11.5500    0.9980   -2.1460 hc        1 MOL      0.105734
    128 H54        10.2810    0.2480   -3.0880 hc        1 MOL      0.105734
    129 H55        13.6680   -0.2280   -1.7150 ha        1 MOL      0.113938
    130 H56        10.1910   -2.3820   -3.2350 ha        1 MOL      0.113938
    131 H57        14.9950   -2.2470   -1.9860 ha        1 MOL      0.100870
    132 H58        11.4480   -4.3130   -3.3740 ha        1 MOL      0.100870
    133 H59        14.0140   -4.2930   -3.0600 ha        1 MOL      0.104390
    134 N12        10.7830   -1.3710    0.8390 n         1 MOL      0.062832
    135 C45        10.1710   -2.7000    0.5060 c3        1 MOL      0.055272
    136 C46         8.6620   -2.7340    0.8880 c         1 MOL      0.485750
    137 O20         8.0160   -1.6670    0.9870 o         1 MOL     -0.541566
    138 C47        11.0120   -3.7560    1.1830 c3        1 MOL     -0.380687
    139 C48        11.5020   -2.9640    2.3860 c3        1 MOL      0.161041
    140 C49        11.7360   -1.5300    1.9190 c3        1 MOL     -0.022619
    141 H60        10.2590   -2.8140   -0.5700 h1        1 MOL      0.017132
    142 H61        10.4240   -4.6400    1.4160 hc        1 MOL      0.105461
    143 H62        11.9120   -3.8510    0.5650 hc        1 MOL      0.105461
    144 H63        10.6510   -2.9410    3.0680 hc        1 MOL     -0.022966
    145 H64        12.4510   -3.2650    2.8340 hc        1 MOL     -0.022966
    146 H65        11.6340   -0.8370    2.7490 h1        1 MOL      0.041280
    147 H66        12.7500   -1.4050    1.5440 h1        1 MOL      0.041280
    148 N13         8.0350   -3.9040    0.9890 n         1 MOL     -0.370985
    149 C50         6.5900   -3.9900    1.2780 c3        1 MOL      0.144596
    150 C51         5.7530   -5.0630    0.5470 c         1 MOL      0.407093
    151 O21         4.8210   -5.6360    1.0560 o         1 MOL     -0.539636
    152 C52         6.3350   -3.9640    2.7840 c3        1 MOL     -0.039368
    153 C53         6.7640   -2.6490    3.4960 c3        1 MOL     -0.330767
    154 C54         6.3810   -2.6880    4.9910 c         1 MOL      0.679248
    155 O22         5.3120   -2.1100    5.3510 o         1 MOL     -0.706935
    156 O23         7.0170   -3.4570    5.7550 o         1 MOL     -0.706935
    157 H67         8.5440   -4.7750    0.9510 hn        1 MOL      0.250997
    158 H68         6.1710   -3.0640    0.8850 h1        1 MOL      0.110894
    159 H69         6.7220   -4.9250    3.1390 hc        1 MOL      0.057563
    160 H70         5.2540   -4.0060    2.8850 hc        1 MOL      0.057563
    161 H71         6.3800   -1.7340    3.0520 hc        1 MOL      0.086504
    162 H72         7.8400   -2.5030    3.4330 hc        1 MOL      0.086504
    163 N14         5.9490   -5.4020   -0.7510 n         1 MOL     -0.426687
    164 C55         6.7880   -4.7630   -1.8060 c3        1 MOL     -0.003428
    165 H73         7.4350   -4.0130   -1.3510 h1        1 MOL      0.040563
    166 H74         7.4000   -5.5220   -2.2930 h1        1 MOL      0.040563
    167 H75         6.1420   -4.2870   -2.5440 h1        1 MOL      0.040563
    168 H76         5.4250   -6.2350   -0.9970 hn        1 MOL      0.299644
    169 Ca1        -7.9910    0.7920   -1.6040 Ca        1 MOL      1.768603
    170 O24        -7.9850    1.4880   -4.1100 oh        1 MOL     -0.845671
    171 H77        -8.5000    1.6100   -4.9060 ho        1 MOL      0.415412
    172 H78        -7.0950    1.7560   -4.3430 ho        1 MOL      0.415412
    173 O25        -5.6250   -0.2830   -2.2050 oh        1 MOL     -0.845671
    174 H79        -5.2430   -0.9050   -1.5840 ho        1 MOL      0.415412
    175 H80        -4.8730    0.1420   -2.6130 ho        1 MOL      0.415412
    176 O26        -9.7280    2.8090   -1.4250 oh        1 MOL     -0.845671
    177 H81       -10.5120    2.7790   -1.9580 ho        1 MOL      0.415412
    178 H82        -9.9650    3.3520   -0.6760 ho        1 MOL      0.415412
@<TRIPOS>BOND
     1    1    2 1   
     2    1    4 1   
     3    1    5 1   
     4    1    6 1   
     5    2    3 2   
     6    2    7 1   
     7    7    8 1   
     8    7   15 1   
     9    8    9 1   
    10    8   11 1   
    11    8   16 1   
    12    9   10 2   
    13    9   19 1   
    14   11   12 1   
    15   11   17 1   
    16   11   18 1   
    17   12   13 1   
    18   12   14 1   
    19   19   20 1   
    20   19   24 1   
    21   20   21 1   
    22   20   23 1   
    23   20   25 1   
    24   21   22 2   
    25   21   29 1   
    26   23   26 1   
    27   23   27 1   
    28   23   28 1   
    29   29   30 1   
    30   29   37 1   
    31   30   31 1   
    32   30   33 1   
    33   30   38 1   
    34   31   32 2   
    35   31   41 1   
    36   33   34 1   
    37   33   39 1   
    38   33   40 1   
    39   34   35 1   
    40   34   36 1   
    41   41   42 1   
    42   41   45 1   
    43   42   43 1   
    44   42   46 1   
    45   42   47 1   
    46   43   44 2   
    47   43   48 1   
    48   48   49 1   
    49   48   56 1   
    50   49   50 1   
    51   49   52 1   
    52   49   57 1   
    53   50   51 2   
    54   50   62 1   
    55   52   53 1   
    56   52   58 1   
    57   52   59 1   
    58   53   54 1   
    59   53   55 2   
    60   54   60 1   
    61   54   61 1   
    62   62   63 1   
    63   62   66 1   
    64   63   64 1   
    65   63   67 1   
    66   63   68 1   
    67   64   65 2   
    68   64   69 1   
    69   69   70 1   
    70   69   76 1   
    71   70   71 1   
    72   70   73 1   
    73   70   77 1   
    74   71   72 2   
    75   71   83 1   
    76   73   74 1   
    77   73   75 1   
    78   73   78 1   
    79   74   80 1   
    80   74   81 1   
    81   74   82 1   
    82   75   79 1   
    83   83   84 1   
    84   83   91 1   
    85   84   85 1   
    86   84   87 1   
    87   84   92 1   
    88   85   86 2   
    89   85  102 1   
    90   87   88 1   
    91   87   89 1   
    92   87   93 1   
    93   88   90 1   
    94   88   94 1   
    95   88   95 1   
    96   89   96 1   
    97   89   97 1   
    98   89   98 1   
    99   90   99 1   
   100   90  100 1   
   101   90  101 1   
   102  102  103 1   
   103  102  110 1   
   104  103  104 1   
   105  103  106 1   
   106  103  111 1   
   107  104  105 2   
   108  104  114 1   
   109  106  107 1   
   110  106  112 1   
   111  106  113 1   
   112  107  108 1   
   113  107  109 1   
   114  114  115 1   
   115  114  125 1   
   116  115  116 1   
   117  115  118 1   
   118  115  126 1   
   119  116  117 2   
   120  116  134 1   
   121  118  119 1   
   122  118  127 1   
   123  118  128 1   
   124  119  120 ar  
   125  119  121 ar  
   126  120  122 ar  
   127  120  129 1   
   128  121  123 ar  
   129  121  130 1   
   130  122  124 ar  
   131  122  131 1   
   132  123  124 ar  
   133  123  132 1   
   134  124  133 1   
   135  134  135 1   
   136  134  140 1   
   137  135  136 1   
   138  135  138 1   
   139  135  141 1   
   140  136  137 2   
   141  136  148 1   
   142  138  139 1   
   143  138  142 1   
   144  138  143 1   
   145  139  140 1   
   146  139  144 1   
   147  139  145 1   
   148  140  146 1   
   149  140  147 1   
   150  148  149 1   
   151  148  157 1   
   152  149  150 1   
   153  149  152 1   
   154  149  158 1   
   155  150  151 2   
   156  150  163 1   
   157  152  153 1   
   158  152  159 1   
   159  152  160 1   
   160  153  154 1   
   161  153  161 1   
   162  153  162 1   
   163  154  155 1   
   164  154  156 1   
   165  163  164 1   
   166  163  168 1   
   167  164  165 1   
   168  164  166 1   
   169  164  167 1   
   170  170  171 1   
   171  170  172 1   
   172  173  174 1   
   173  173  175 1   
   174  176  177 1   
   175  176  178 1   
@<TRIPOS>SUBSTRUCTURE
     1 MOL         1 TEMP              0 ****  ****    0 ROOT
