@<TRIPOS>MOLECULE
MOL
  189   185     1     0     0
SMALL
resp


@<TRIPOS>ATOM
      1 C1         -4.7520   -5.1630   -2.3110 c3        1 MOL     -0.353123
      2 C2         -5.3570   -3.9710   -1.4850 c         1 MOL      0.732281
      3 O1         -4.6550   -3.2580   -0.7840 o         1 MOL     -0.680645
      4 H1         -4.1950   -5.8210   -1.6440 hc        1 MOL      0.098998
      5 H2         -5.5570   -5.7240   -2.7840 hc        1 MOL      0.098998
      6 H3         -4.0820   -4.7710   -3.0770 hc        1 MOL      0.098998
      7 N1         -6.6170   -3.6050   -1.7830 n         1 MOL     -0.646294
      8 C3         -7.3350   -2.4150   -1.3180 c3        1 MOL      0.343175
      9 C4         -6.4790   -1.1230   -1.3690 c         1 MOL      0.228012
     10 O2         -5.9760   -0.6530   -0.3680 o         1 MOL     -0.183293
     11 C5         -8.1260   -2.5630    0.0240 c3        1 MOL     -0.066728
     12 C6         -7.5790   -3.5770    1.0880 c         1 MOL      0.578002
     13 O3         -6.4000   -3.4070    1.5760 o         1 MOL     -0.664466
     14 O4         -8.2110   -4.6740    1.3190 o         1 MOL     -0.664466
     15 H4         -7.1540   -4.2540   -2.3400 hn        1 MOL      0.328580
     16 H5         -8.0830   -2.2360   -2.0890 h1        1 MOL     -0.017038
     17 H6         -9.0700   -3.0470   -0.2480 hc        1 MOL     -0.016216
     18 H7         -8.3800   -1.5500    0.3470 hc        1 MOL     -0.016216
     19 N2         -6.2930   -0.6680   -2.6380 n         1 MOL     -0.516388
     20 C7         -5.6270    0.5380   -3.0600 c3        1 MOL      0.262331
     21 C8         -6.0640    1.8980   -2.4170 c         1 MOL      0.206304
     22 O5         -6.2700    2.8900   -3.0750 o         1 MOL     -0.550163
     23 C9         -4.1090    0.4340   -2.9830 c3        1 MOL      0.346648
     24 C10        -3.2130    1.6280   -3.3560 c3        1 MOL      0.019321
     25 C11        -3.6170   -0.8360   -3.7570 c3        1 MOL     -0.169759
     26 C12        -3.4290    2.1290   -4.8150 c3        1 MOL     -0.411826
     27 H8         -6.6950   -1.1970   -3.3990 hn        1 MOL      0.299054
     28 H9         -5.8100    0.6560   -4.1300 h1        1 MOL     -0.012086
     29 H10        -3.8870    0.2570   -1.9300 hc        1 MOL     -0.154906
     30 H11        -2.1550    1.3660   -3.2520 hc        1 MOL      0.063087
     31 H12        -3.2990    2.4440   -2.6520 hc        1 MOL      0.063087
     32 H13        -4.0570   -1.7820   -3.4310 hc        1 MOL      0.017424
     33 H14        -3.8540   -0.6920   -4.8030 hc        1 MOL      0.017424
     34 H15        -2.5480   -0.9320   -3.5890 hc        1 MOL      0.017424
     35 H16        -4.4680    2.4050   -4.9540 hc        1 MOL      0.087100
     36 H17        -2.9600    3.1150   -4.8950 hc        1 MOL      0.087100
     37 H18        -3.0660    1.4400   -5.5720 hc        1 MOL      0.087100
     38 N3         -6.2310    1.9730   -1.1080 n         1 MOL      0.222151
     39 C13        -6.8360    3.0860   -0.3330 c3        1 MOL     -0.138471
     40 C14        -6.0590    4.4400   -0.3830 c         1 MOL      0.661887
     41 O6         -6.5990    5.5170   -0.5060 o         1 MOL     -0.545853
     42 C15        -7.1410    2.6430    1.1710 c3        1 MOL     -0.475393
     43 C16        -7.8640    3.7480    1.9260 c         1 MOL      0.807507
     44 O7         -9.1080    3.8830    1.7260 o         1 MOL     -0.739882
     45 O8         -7.2940    4.4840    2.7460 o         1 MOL     -0.739882
     46 H19        -6.0060    1.1270   -0.5970 hn        1 MOL     -0.127239
     47 H20        -7.7710    3.3320   -0.8460 h1        1 MOL      0.074791
     48 H21        -6.2080    2.4370    1.6990 hc        1 MOL      0.127628
     49 H22        -7.6770    1.7000    1.2690 hc        1 MOL      0.127628
     50 N4         -4.7050    4.4440   -0.4600 n         1 MOL     -0.532614
     51 C17        -3.7690    3.5130    0.1300 c3        1 MOL      0.494498
     52 C18        -2.6460    4.3010    0.7780 c         1 MOL      0.382415
     53 O9         -2.3900    5.3920    0.4370 o         1 MOL     -0.541254
     54 H23        -4.3610    5.2770   -0.9070 hn        1 MOL      0.246964
     55 H24        -3.4280    2.7980   -0.6190 h1        1 MOL     -0.092405
     56 H25        -4.3130    3.0560    0.9590 h1        1 MOL     -0.092405
     57 N5         -2.0180    3.7830    1.8570 n         1 MOL     -0.267126
     58 C19        -2.2730    2.4250    2.4520 c3        1 MOL      0.014091
     59 C20        -2.1710    1.1690    1.5530 c         1 MOL      0.095183
     60 O10        -3.2220    0.5620    1.1450 o         1 MOL     -0.472000
     61 C21        -3.5290    2.4350    3.3900 c3        1 MOL      0.026208
     62 C22        -3.2300    1.8470    4.7730 c         1 MOL      0.677846
     63 O11        -2.4680    0.8240    4.7430 o         1 MOL     -0.680809
     64 O12        -3.8170    2.2030    5.7620 o         1 MOL     -0.680809
     65 H26        -1.3070    4.3900    2.2500 hn        1 MOL      0.230058
     66 H27        -1.4640    2.2080    3.1530 h1        1 MOL      0.027961
     67 H28        -4.3260    1.9300    2.8500 hc        1 MOL      0.006854
     68 H29        -3.7600    3.4690    3.6590 hc        1 MOL      0.006854
     69 N6         -0.9830    0.6210    1.2660 n         1 MOL     -0.124081
     70 C23         0.3220    1.2480    1.3520 c3        1 MOL     -0.010917
     71 C24         0.6150    2.3350    0.2500 c         1 MOL      0.521512
     72 O13        -0.1120    2.4670   -0.7620 o         1 MOL     -0.461614
     73 H30        -1.1170   -0.2390    0.7520 hn        1 MOL      0.181295
     74 H31         1.1340    0.5380    1.4040 h1        1 MOL      0.067744
     75 H32         0.4450    1.7550    2.3140 h1        1 MOL      0.067744
     76 N7          1.7260    3.0560    0.4400 n         1 MOL     -0.528921
     77 C25         2.0900    4.1630   -0.4610 c3        1 MOL     -0.042952
     78 C26         2.6150    3.6260   -1.8500 c         1 MOL      0.516182
     79 O14         2.3590    4.2790   -2.8900 o         1 MOL     -0.545565
     80 C27         3.1940    5.0600    0.2150 c3        1 MOL      0.243335
     81 C28         3.3800    6.4150   -0.4460 c3        1 MOL     -0.198999
     82 C29         4.3880    7.2500    0.3010 c         1 MOL      0.623549
     83 N8          4.1670    8.5290    0.1900 n         1 MOL     -0.741855
     84 O15         5.3080    6.8330    1.0280 o         1 MOL     -0.570101
     85 H33         2.1630    2.9260    1.3360 hn        1 MOL      0.285919
     86 H34         1.2370    4.7790   -0.7160 h1        1 MOL      0.110608
     87 H35         4.1370    4.5010    0.2450 hc        1 MOL     -0.046759
     88 H36         2.9020    5.2510    1.2470 hc        1 MOL     -0.046759
     89 H37         2.4470    6.9680   -0.5420 hc        1 MOL      0.054275
     90 H38         3.7140    6.2540   -1.4730 hc        1 MOL      0.054275
     91 H39         3.4780    8.8170   -0.4990 hn        1 MOL      0.353808
     92 H40         4.8210    9.1280    0.6800 hn        1 MOL      0.353808
     93 N9          3.1040    2.4110   -1.9140 n         1 MOL     -0.320915
     94 C30         3.6620    1.9020   -3.1910 c3        1 MOL     -0.119277
     95 C31         5.0230    1.4370   -3.0990 c         1 MOL      0.589102
     96 O16         5.6790    1.3180   -4.1290 o         1 MOL     -0.569246
     97 C32         2.7630    0.8370   -3.8470 c3        1 MOL      0.206021
     98 C33         1.4780    1.3750   -4.4290 c3        1 MOL     -0.173439
     99 C34         2.4330   -0.3930   -2.9770 c3        1 MOL     -0.173439
    100 H41         2.9180    1.8570   -1.0930 hn        1 MOL      0.224241
    101 H42         3.7140    2.7370   -3.8930 h1        1 MOL      0.135678
    102 H43         3.3930    0.4250   -4.6350 hc        1 MOL     -0.009129
    103 H44         1.8470    2.1620   -5.0940 hc        1 MOL      0.036030
    104 H45         1.0500    0.6680   -5.1430 hc        1 MOL      0.036030
    105 H46         0.8220    1.7600   -3.6550 hc        1 MOL      0.036030
    106 H47         3.3090   -0.8550   -2.5420 hc        1 MOL      0.036030
    107 H48         1.7760   -0.0070   -2.2020 hc        1 MOL      0.036030
    108 H49         1.9700   -1.1980   -3.5490 hc        1 MOL      0.036030
    109 N10         5.5000    1.2000   -1.9250 n         1 MOL     -0.370176
    110 C35         6.8870    0.8290   -1.7180 c3        1 MOL      0.020361
    111 C36         7.0930   -0.6120   -1.2930 c         1 MOL      0.469780
    112 O17         8.1730   -1.2600   -1.4710 o         1 MOL     -0.540018
    113 C37         7.6280    1.7250   -0.7490 c3        1 MOL     -0.258908
    114 C38         7.5030    3.2210   -1.0020 c         1 MOL      0.596186
    115 N11         7.3150    4.0230    0.0710 n         1 MOL     -0.796073
    116 O18         7.6130    3.6530   -2.1390 o         1 MOL     -0.521307
    117 H50         4.9480    1.2920   -1.0740 hn        1 MOL      0.236971
    118 H51         7.4360    0.8750   -2.6580 h1        1 MOL      0.103301
    119 H52         8.6700    1.3810   -0.7750 hc        1 MOL      0.115784
    120 H53         7.1910    1.4790    0.2180 hc        1 MOL      0.115784
    121 H54         7.0490    3.6070    0.9540 hn        1 MOL      0.378173
    122 H55         7.3770    5.0130   -0.1090 hn        1 MOL      0.378173
    123 N12         6.0460   -1.1720   -0.6380 n         1 MOL     -0.354656
    124 C39         6.1410   -2.4340    0.2040 c3        1 MOL      0.045672
    125 C40         4.8080   -3.1770    0.2230 c         1 MOL      0.507701
    126 O19         3.7770   -2.7030   -0.2290 o         1 MOL     -0.484007
    127 C41         6.4400   -2.0200    1.5880 c3        1 MOL     -0.197993
    128 C42         7.5880   -1.1040    1.9100 ca        1 MOL     -0.093801
    129 C43         8.8810   -1.5620    1.6830 ca        1 MOL     -0.029308
    130 C44         7.2450    0.1370    2.5440 ca        1 MOL     -0.029308
    131 C45         9.9530   -0.7070    2.0360 ca        1 MOL     -0.301810
    132 C46         8.2910    0.9970    2.7340 ca        1 MOL     -0.301810
    133 C47         9.6220    0.6030    2.4820 ca        1 MOL      0.373352
    134 O20        10.5750    1.4850    2.7220 oh        1 MOL     -0.527616
    135 H56         5.1510   -0.7060   -0.6970 hn        1 MOL      0.223997
    136 H57         6.9020   -3.1050   -0.1880 h1        1 MOL      0.081254
    137 H58         6.6120   -2.9820    2.0800 hc        1 MOL      0.122523
    138 H59         5.4580   -1.6700    1.8930 hc        1 MOL      0.122523
    139 H60         9.1420   -2.4860    1.2000 ha        1 MOL      0.121670
    140 H61         6.2240    0.4380    2.7290 ha        1 MOL      0.121670
    141 H62        10.9970   -0.9670    1.9890 ha        1 MOL      0.133450
    142 H63         8.0910    2.0030    3.0840 ha        1 MOL      0.133450
    143 H64        11.4790    1.1720    2.6120 ho        1 MOL      0.389151
    144 N13         4.7510   -4.3600    0.8260 n         1 MOL     -0.701291
    145 C48         3.5870   -5.1050    1.3090 c3        1 MOL      0.326086
    146 C49         2.4620   -5.5140    0.3070 c         1 MOL      0.142342
    147 O21         1.9120   -6.5830    0.5610 o         1 MOL     -0.487384
    148 C50         2.9160   -4.2860    2.4600 c3        1 MOL     -0.047627
    149 C51         3.7630   -4.1980    3.7760 c3        1 MOL     -0.175402
    150 C52         3.1220   -3.6730    5.0360 c         1 MOL      0.755321
    151 O22         1.9100   -3.4790    5.1530 o         1 MOL     -0.740596
    152 O23         3.8910   -3.3360    5.9280 o         1 MOL     -0.740596
    153 H65         5.6400   -4.7690    1.0770 hn        1 MOL      0.346321
    154 H66         3.9310   -6.0710    1.6510 h1        1 MOL      0.031946
    155 H67         2.0010   -4.8370    2.6410 hc        1 MOL      0.067447
    156 H68         2.6750   -3.2790    2.1040 hc        1 MOL      0.067447
    157 H69         4.6820   -3.6280    3.6670 hc        1 MOL     -0.018480
    158 H70         4.1190   -5.2110    3.9830 hc        1 MOL     -0.018480
    159 N14         2.0930   -4.7380   -0.6920 n         1 MOL      0.055909
    160 C53         0.9690   -4.9180   -1.6180 c3        1 MOL     -0.211376
    161 C54         1.3030   -5.7730   -2.8090 c         1 MOL      0.538393
    162 O24         0.4420   -6.4510   -3.4440 o         1 MOL     -0.538011
    163 C55         0.4890   -3.5460   -2.0220 c3        1 MOL     -0.038830
    164 C56         0.1170   -2.5160   -0.9220 c3        1 MOL      0.194425
    165 C57        -1.2670   -2.8830   -0.1660 c         1 MOL      0.624971
    166 O25        -1.4310   -4.0870    0.1880 o         1 MOL     -0.626240
    167 O26        -2.0310   -1.9320    0.1810 o         1 MOL     -0.626240
    168 H71         2.5220   -3.8250   -0.6440 hn        1 MOL      0.133849
    169 H72         0.1470   -5.4460   -1.1350 h1        1 MOL      0.143251
    170 H73        -0.3720   -3.5930   -2.6890 hc        1 MOL      0.021521
    171 H74         1.2050   -3.0790   -2.7040 hc        1 MOL      0.021521
    172 H75        -0.0360   -1.5110   -1.2980 hc        1 MOL     -0.089323
    173 H76         0.8600   -2.5850   -0.1210 hc        1 MOL     -0.089323
    174 N15         2.5980   -5.6710   -3.2240 n         1 MOL     -0.333880
    175 C58         3.1700   -6.5660   -4.3310 c3        1 MOL     -0.251348
    176 H77         3.5440   -7.4920   -3.8930 h1        1 MOL      0.108513
    177 H78         2.3870   -6.7980   -5.0530 h1        1 MOL      0.108513
    178 H79         3.9860   -6.0470   -4.8340 h1        1 MOL      0.108513
    179 H80         3.3290   -5.1450   -2.7730 hn        1 MOL      0.241869
    180 Ca1        -4.4000   -1.7080    1.3000 Ca        1 MOL      1.646453
    181 O27        -3.4250   -4.1140    2.2360 oh        1 MOL     -0.870310
    182 H81        -2.7300   -4.1770    1.5770 ho        1 MOL      0.415682
    183 H82        -4.0730   -4.7650    1.9530 ho        1 MOL      0.415682
    184 O28        -3.4400   -1.3320    3.9040 oh        1 MOL     -0.870310
    185 H83        -3.0250   -1.9770    4.4740 ho        1 MOL      0.415682
    186 H84        -3.2000   -0.4890    4.2760 ho        1 MOL      0.415682
    187 O29        -6.5960   -0.6100    2.5140 oh        1 MOL     -0.870310
    188 H85        -6.5720   -0.2940    3.4230 ho        1 MOL      0.415682
    189 H86        -7.4760   -0.4070    2.2080 ho        1 MOL      0.415682
@<TRIPOS>BOND
     1    1    2 1   
     2    1    4 1   
     3    1    5 1   
     4    1    6 1   
     5    2    3 2   
     6    2    7 1   
     7    7    8 1   
     8    7   15 1   
     9    8    9 1   
    10    8   11 1   
    11    8   16 1   
    12    9   10 2   
    13    9   19 1   
    14   11   12 1   
    15   11   17 1   
    16   11   18 1   
    17   12   13 1   
    18   12   14 1   
    19   19   20 1   
    20   19   27 1   
    21   20   21 1   
    22   20   23 1   
    23   20   28 1   
    24   21   22 2   
    25   21   38 1   
    26   23   24 1   
    27   23   25 1   
    28   23   29 1   
    29   24   26 1   
    30   24   30 1   
    31   24   31 1   
    32   25   32 1   
    33   25   33 1   
    34   25   34 1   
    35   26   35 1   
    36   26   36 1   
    37   26   37 1   
    38   38   39 1   
    39   38   46 1   
    40   39   40 1   
    41   39   42 1   
    42   39   47 1   
    43   40   41 2   
    44   40   50 1   
    45   42   43 1   
    46   42   48 1   
    47   42   49 1   
    48   43   44 1   
    49   43   45 1   
    50   50   51 1   
    51   50   54 1   
    52   51   52 1   
    53   51   55 1   
    54   51   56 1   
    55   52   53 2   
    56   52   57 1   
    57   57   58 1   
    58   57   65 1   
    59   58   59 1   
    60   58   61 1   
    61   58   66 1   
    62   59   60 2   
    63   59   69 1   
    64   61   62 1   
    65   61   67 1   
    66   61   68 1   
    67   62   63 1   
    68   62   64 1   
    69   69   70 1   
    70   69   73 1   
    71   70   71 1   
    72   70   74 1   
    73   70   75 1   
    74   71   72 2   
    75   71   76 1   
    76   76   77 1   
    77   76   85 1   
    78   77   78 1   
    79   77   80 1   
    80   77   86 1   
    81   78   79 2   
    82   78   93 1   
    83   80   81 1   
    84   80   87 1   
    85   80   88 1   
    86   81   82 1   
    87   81   89 1   
    88   81   90 1   
    89   82   83 1   
    90   82   84 2   
    91   83   91 1   
    92   83   92 1   
    93   93   94 1   
    94   93  100 1   
    95   94   95 1   
    96   94   97 1   
    97   94  101 1   
    98   95   96 2   
    99   95  109 1   
   100   97   98 1   
   101   97   99 1   
   102   97  102 1   
   103   98  103 1   
   104   98  104 1   
   105   98  105 1   
   106   99  106 1   
   107   99  107 1   
   108   99  108 1   
   109  109  110 1   
   110  109  117 1   
   111  110  111 1   
   112  110  113 1   
   113  110  118 1   
   114  111  112 2   
   115  111  123 1   
   116  113  114 1   
   117  113  119 1   
   118  113  120 1   
   119  114  115 1   
   120  114  116 2   
   121  115  121 1   
   122  115  122 1   
   123  123  124 1   
   124  123  135 1   
   125  124  125 1   
   126  124  127 1   
   127  124  136 1   
   128  125  126 2   
   129  125  144 1   
   130  127  128 1   
   131  127  137 1   
   132  127  138 1   
   133  128  129 ar  
   134  128  130 ar  
   135  129  131 ar  
   136  129  139 1   
   137  130  132 ar  
   138  130  140 1   
   139  131  133 ar  
   140  131  141 1   
   141  132  133 ar  
   142  132  142 1   
   143  133  134 1   
   144  134  143 1   
   145  144  145 1   
   146  144  153 1   
   147  145  146 1   
   148  145  148 1   
   149  145  154 1   
   150  146  147 2   
   151  146  159 1   
   152  148  149 1   
   153  148  155 1   
   154  148  156 1   
   155  149  150 1   
   156  149  157 1   
   157  149  158 1   
   158  150  151 1   
   159  150  152 1   
   160  159  160 1   
   161  159  168 1   
   162  160  161 1   
   163  160  163 1   
   164  160  169 1   
   165  161  162 2   
   166  161  174 1   
   167  163  164 1   
   168  163  170 1   
   169  163  171 1   
   170  164  165 1   
   171  164  172 1   
   172  164  173 1   
   173  165  166 1   
   174  165  167 1   
   175  174  175 1   
   176  174  179 1   
   177  175  176 1   
   178  175  177 1   
   179  175  178 1   
   180  181  182 1   
   181  181  183 1   
   182  184  185 1   
   183  184  186 1   
   184  187  188 1   
   185  187  189 1   
@<TRIPOS>SUBSTRUCTURE
     1 MOL         1 TEMP              0 ****  ****    0 ROOT
