@<TRIPOS>MOLECULE
MOL
  186   183     1     0     0
SMALL
resp


@<TRIPOS>ATOM
      1 C1         12.2640    3.6880   -4.2830 c3        1 MOL     -0.337294
      2 C2         12.0000    2.7310   -3.0360 c         1 MOL      0.589700
      3 O1         12.8470    1.9200   -2.7590 o         1 MOL     -0.587341
      4 H1         13.0290    3.2480   -4.9220 hc        1 MOL      0.087927
      5 H2         11.3420    3.8090   -4.8510 hc        1 MOL      0.087927
      6 H3         12.6030    4.6610   -3.9280 hc        1 MOL      0.087927
      7 N1         10.9370    2.9780   -2.3060 n         1 MOL     -0.185765
      8 C3         10.6800    2.4370   -0.9970 c3        1 MOL     -0.372662
      9 C4          9.3260    1.6580   -0.9080 c         1 MOL      0.441889
     10 O2          8.2440    2.0900   -1.4170 o         1 MOL     -0.572327
     11 C5         10.6090    3.6160    0.0120 c3        1 MOL      0.029288
     12 C6          9.6100    4.7620   -0.3140 c         1 MOL      0.770570
     13 O3          9.0710    4.8530   -1.4590 o         1 MOL     -0.769928
     14 O4          9.3310    5.5690    0.5790 o         1 MOL     -0.769928
     15 H4         10.2630    3.6850   -2.5590 hn        1 MOL      0.170367
     16 H5         11.5620    1.9340   -0.5950 h1        1 MOL      0.158336
     17 H6         11.6350    3.9790    0.0830 hc        1 MOL      0.041322
     18 H7         10.2890    3.1560    0.9430 hc        1 MOL      0.041322
     19 N2          9.3940    0.5590   -0.1690 n         1 MOL     -0.056048
     20 C7          8.4000   -0.5270   -0.2210 c3        1 MOL     -0.332054
     21 C8          7.1290   -0.2550    0.5740 c         1 MOL      0.569427
     22 O5          6.0840   -0.8420    0.2210 o         1 MOL     -0.458588
     23 C9          9.0640   -1.7870    0.2260 c3        1 MOL     -0.166060
     24 C10        10.1070   -2.3320   -0.7560 c3        1 MOL      0.004765
     25 C11        10.7810   -3.5930   -0.3120 c3        1 MOL      0.199143
     26 C12        12.1410   -3.8540   -1.0240 c3        1 MOL     -0.064823
     27 N3         12.5410   -5.2600   -0.9030 n4        1 MOL     -0.123736
     28 H8         10.3050    0.4210    0.2490 hn        1 MOL      0.197942
     29 H9          8.1160   -0.6640   -1.2640 h1        1 MOL      0.199647
     30 H10         8.3740   -2.5690    0.5280 hc        1 MOL      0.087811
     31 H11         9.5530   -1.6430    1.1800 hc        1 MOL      0.087811
     32 H12        10.8840   -1.6050   -0.9900 hc        1 MOL      0.010991
     33 H13         9.6090   -2.5880   -1.6950 hc        1 MOL      0.010991
     34 H14        10.1300   -4.4640   -0.2590 hc        1 MOL     -0.028177
     35 H15        11.0160   -3.4640    0.7480 hc        1 MOL     -0.028177
     36 H16        12.9150   -3.2310   -0.5740 hx        1 MOL      0.082864
     37 H17        11.9630   -3.5250   -2.0500 hx        1 MOL      0.082864
     38 H18        11.9990   -5.9080   -1.4470 hn        1 MOL      0.209118
     39 H19        13.4970   -5.4410   -1.1800 hn        1 MOL      0.209118
     40 H20        12.6400   -5.6080    0.0460 hn        1 MOL      0.209118
     41 N4          7.0990    0.7390    1.5160 n         1 MOL     -0.238804
     42 C13         5.8690    1.2480    2.0750 c3        1 MOL     -0.380891
     43 C14         4.8130    1.7560    0.9960 c         1 MOL      0.723066
     44 O6          5.0920    2.4540    0.0060 o         1 MOL     -0.760456
     45 C15         6.1510    2.3610    3.1280 c3        1 MOL     -0.734833
     46 C16         7.2800    3.3400    2.7000 c         1 MOL      0.757797
     47 O7          8.2680    3.3630    3.4410 o         1 MOL     -0.635453
     48 O8          7.2040    3.9230    1.5970 o         1 MOL     -0.635453
     49 H21         7.9520    1.2230    1.7320 hn        1 MOL      0.265205
     50 H22         5.4760    0.4070    2.6480 h1        1 MOL      0.249957
     51 H23         6.5440    1.8490    4.0010 hc        1 MOL      0.251885
     52 H24         5.2990    2.9970    3.3880 hc        1 MOL      0.251885
     53 N5          3.4960    1.5530    1.1800 n         1 MOL     -0.510213
     54 C17         2.9530    0.9550    2.3700 c3        1 MOL      0.014730
     55 C18         3.0440   -0.5430    2.5190 c         1 MOL      0.721952
     56 O9          3.6890   -1.2480    1.7500 o         1 MOL     -0.596599
     57 H25         2.9210    1.7370    0.3640 hn        1 MOL      0.359586
     58 H26         1.9090    1.2470    2.4170 h1        1 MOL      0.065566
     59 H27         3.4620    1.3720    3.2430 h1        1 MOL      0.065566
     60 N6          2.4120   -0.9900    3.5640 n         1 MOL     -0.607637
     61 C19         2.4390   -2.4080    4.0900 c3        1 MOL      0.268771
     62 C20         1.4710   -3.3510    3.3420 c         1 MOL      0.533030
     63 O10         0.3460   -3.0170    2.9700 o         1 MOL     -0.499259
     64 C21         2.2560   -2.5750    5.5570 c3        1 MOL     -0.153008
     65 C22         1.0410   -1.8830    6.1580 c         1 MOL      0.693630
     66 O11         0.0270   -2.4900    6.5000 o         1 MOL     -0.647780
     67 O12         1.1040   -0.6650    6.1410 o         1 MOL     -0.647780
     68 H28         2.0000   -0.3550    4.2280 hn        1 MOL      0.263824
     69 H29         3.4350   -2.7720    3.8130 h1        1 MOL     -0.042097
     70 H30         3.0970   -2.0390    5.9880 hc        1 MOL      0.001040
     71 H31         2.2810   -3.6390    5.7970 hc        1 MOL      0.001040
     72 N7          1.8860   -4.6200    3.1150 n         1 MOL     -0.319907
     73 C23         1.0580   -5.8050    2.7160 c3        1 MOL     -0.266412
     74 C24         0.4300   -5.7130    1.3160 c         1 MOL      0.597694
     75 O13        -0.2570   -6.6470    1.0000 o         1 MOL     -0.580385
     76 H32         2.8650   -4.7390    3.3010 hn        1 MOL      0.223709
     77 H33         0.3160   -5.9400    3.5140 h1        1 MOL      0.142542
     78 H34         1.7460   -6.6480    2.7260 h1        1 MOL      0.142542
     79 N8          0.7230   -4.7340    0.4980 n         1 MOL     -0.255715
     80 C25         0.5730   -4.5250   -1.0090 c3        1 MOL      0.013128
     81 C26         0.2690   -3.0430   -1.2970 c         1 MOL      0.352118
     82 O14         0.5550   -2.1170   -0.5000 o         1 MOL     -0.432654
     83 C27         1.6880   -5.1170   -1.8730 c3        1 MOL      0.489668
     84 C28         3.0800   -4.5000   -1.5680 c3        1 MOL     -0.337111
     85 O15         1.7350   -6.4970   -1.7760 oh        1 MOL     -0.635741
     86 H35         1.2560   -3.9930    0.9380 hn        1 MOL      0.122133
     87 H36        -0.3000   -5.1350   -1.2720 h1        1 MOL      0.006885
     88 H37         1.4170   -5.0620   -2.9200 h1        1 MOL     -0.083864
     89 H38         1.0200   -6.7620   -2.3530 ho        1 MOL      0.392301
     90 H39         3.0820   -3.4120   -1.6250 hc        1 MOL      0.096016
     91 H40         3.5060   -4.7350   -0.5940 hc        1 MOL      0.096016
     92 H41         3.7960   -4.8370   -2.3260 hc        1 MOL      0.096016
     93 N9         -0.5710   -2.7930   -2.3560 n         1 MOL     -0.183360
     94 C29        -1.1900   -1.5100   -2.6620 c3        1 MOL     -0.080863
     95 C30        -2.5180   -1.2890   -1.9630 c         1 MOL      0.630515
     96 O16        -2.7630   -0.1950   -1.4570 o         1 MOL     -0.536426
     97 C31        -1.0460   -1.3190   -4.2310 c3        1 MOL      0.124625
     98 C32         0.4250   -1.2370   -4.7260 c3        1 MOL     -0.085519
     99 C33        -1.6960    0.0720   -4.5470 c3        1 MOL     -0.304025
    100 C34         0.9640   -2.6540   -4.9690 c3        1 MOL     -0.012083
    101 H42        -0.9500   -3.6140   -2.8130 hn        1 MOL      0.198025
    102 H43        -0.5570   -0.7470   -2.2120 h1        1 MOL      0.085288
    103 H44        -1.6460   -2.0670   -4.7530 hc        1 MOL      0.027221
    104 H45         1.0150   -0.7070   -3.9750 hc        1 MOL      0.044357
    105 H46         0.4890   -0.6550   -5.6490 hc        1 MOL      0.044357
    106 H47        -1.0110    0.8130   -4.1270 hc        1 MOL      0.074663
    107 H48        -1.6630    0.2770   -5.6270 hc        1 MOL      0.074663
    108 H49        -2.7430    0.1970   -4.2710 hc        1 MOL      0.074663
    109 H50         1.5550   -2.6940   -5.8780 hc        1 MOL     -0.013628
    110 H51         1.6020   -2.9480   -4.1390 hc        1 MOL     -0.013628
    111 H52         0.0890   -3.2900   -5.0570 hc        1 MOL     -0.013628
    112 N10        -3.2970   -2.3450   -1.8770 n         1 MOL     -0.637973
    113 C35        -4.4800   -2.3350   -0.9620 c3        1 MOL      0.110781
    114 C36        -5.7940   -2.6590   -1.7890 c         1 MOL      0.623204
    115 O17        -5.7630   -3.3230   -2.8290 o         1 MOL     -0.545234
    116 C37        -4.1820   -3.3340    0.1090 c3        1 MOL      0.324929
    117 C38        -2.9190   -3.0020    0.9670 c3        1 MOL     -0.338098
    118 O18        -5.2140   -3.2240    1.0620 oh        1 MOL     -0.695219
    119 H53        -3.1380   -3.1450   -2.4790 hn        1 MOL      0.295045
    120 H54        -4.6870   -1.3610   -0.5220 h1        1 MOL      0.069324
    121 H55        -4.0770   -4.2880   -0.3980 h1        1 MOL      0.022237
    122 H56        -4.8320   -3.1340    1.9300 ho        1 MOL      0.426626
    123 H57        -2.8810   -3.8130    1.6970 hc        1 MOL      0.114046
    124 H58        -2.0450   -3.1410    0.3360 hc        1 MOL      0.114046
    125 H59        -2.8780   -2.0270    1.4620 hc        1 MOL      0.114046
    126 N11        -6.9540   -2.4110   -1.2070 n         1 MOL     -0.576114
    127 C39        -8.2970   -2.5990   -1.8010 c3        1 MOL      0.144338
    128 C40        -9.0080   -1.2970   -2.1770 c         1 MOL      0.527874
    129 O19        -9.2190   -1.0430   -3.3490 o         1 MOL     -0.545587
    130 C41        -9.0930   -3.5200   -0.8590 c3        1 MOL      0.307874
    131 C42       -10.5530   -3.7310   -1.2790 c3        1 MOL     -0.518406
    132 O20        -9.2660   -2.7990    0.3460 oh        1 MOL     -0.557839
    133 H60        -6.9700   -1.9060   -0.3260 hn        1 MOL      0.282959
    134 H61        -8.0910   -3.1330   -2.7330 h1        1 MOL      0.053791
    135 H62        -8.5450   -4.4430   -0.6900 h1        1 MOL      0.045438
    136 H63        -8.7230   -3.3420    0.9290 ho        1 MOL      0.371818
    137 H64       -11.0290   -4.4020   -0.5640 hc        1 MOL      0.131100
    138 H65       -11.2050   -2.8640   -1.1460 hc        1 MOL      0.131100
    139 H66       -10.6260   -4.0500   -2.3170 hc        1 MOL      0.131100
    140 N12        -9.2440   -0.4230   -1.2380 n         1 MOL     -0.333878
    141 C43       -10.0930    0.7910   -1.3060 c3        1 MOL     -0.004892
    142 C44        -9.8090    1.7870   -0.1660 c         1 MOL      0.412074
    143 O21        -9.1370    1.4690    0.8200 o         1 MOL     -0.440211
    144 C45       -11.6520    0.4480   -1.2380 c3        1 MOL     -0.175964
    145 C46       -12.1460   -0.0630    0.1430 c3        1 MOL     -0.014329
    146 C47       -13.7160   -0.1970    0.2650 c3        1 MOL     -0.008667
    147 C48       -14.3220   -0.1100    1.6590 c3        1 MOL      0.015180
    148 N13       -15.6990   -0.5940    1.6920 n4        1 MOL     -0.203625
    149 H67        -8.8920   -0.6370   -0.3110 hn        1 MOL      0.222202
    150 H68        -9.7900    1.3190   -2.2180 h1        1 MOL      0.117624
    151 H69       -11.8850   -0.2090   -2.0750 hc        1 MOL      0.070627
    152 H70       -12.2490    1.3490   -1.3890 hc        1 MOL      0.070627
    153 H71       -11.8110    0.6770    0.8700 hc        1 MOL      0.038951
    154 H72       -11.5650   -0.9770    0.2480 hc        1 MOL      0.038951
    155 H73       -14.0730   -1.1640   -0.0930 hc        1 MOL      0.023891
    156 H74       -14.1170    0.4990   -0.4700 hc        1 MOL      0.023891
    157 H75       -14.2460    0.8960    2.0800 hx        1 MOL      0.086582
    158 H76       -13.6350   -0.6950    2.2820 hx        1 MOL      0.086582
    159 H77       -16.4020    0.0840    1.4210 hn        1 MOL      0.239948
    160 H78       -15.8250   -1.2860    0.9750 hn        1 MOL      0.239948
    161 H79       -15.9640   -0.9760    2.5970 hn        1 MOL      0.239948
    162 N14       -10.1170    3.1000   -0.4340 n         1 MOL     -0.366635
    163 C49        -9.6500    4.1490    0.4250 c3        1 MOL      0.164636
    164 C50        -8.1520    4.1880    0.7620 c         1 MOL      0.213169
    165 O22        -7.7310    4.3130    1.9500 o         1 MOL     -0.502593
    166 C51       -10.1910    5.4110   -0.1360 c3        1 MOL     -0.295278
    167 C52        -9.9750    6.4760    0.9960 c3        1 MOL     -0.054408
    168 C53       -10.4420    7.8930    0.7150 c         1 MOL      0.674989
    169 O23       -10.4810    8.3440   -0.4890 o         1 MOL     -0.639179
    170 O24       -10.7910    8.5920    1.6660 o         1 MOL     -0.639179
    171 H80       -10.4790    3.3530   -1.3400 hn        1 MOL      0.246234
    172 H81       -10.2620    4.0320    1.3290 h1        1 MOL      0.080659
    173 H82       -11.2390    5.2140   -0.3150 hc        1 MOL      0.081825
    174 H83        -9.5570    5.6100   -1.0030 hc        1 MOL      0.081825
    175 H84        -8.8860    6.5470    1.1170 hc        1 MOL      0.045601
    176 H85       -10.4000    6.1430    1.9460 hc        1 MOL      0.045601
    177 N15        -7.1990    4.1580   -0.1740 n         1 MOL     -0.108101
    178 C54        -7.2030    4.2610   -1.6410 c3        1 MOL     -0.130466
    179 H86        -6.4620    3.5780   -2.0540 h1        1 MOL      0.072571
    180 H87        -8.1910    3.9980   -2.0210 h1        1 MOL      0.072571
    181 H88        -6.9590    5.2820   -1.9340 h1        1 MOL      0.072571
    182 H89        -6.2830    4.0560    0.2460 hn        1 MOL      0.244067
    183 Ca1         6.3760    4.5860   -0.7970 Ca        1 MOL      1.789461
    184 O25         6.9130    7.3570   -0.2390 oh        1 MOL     -1.023044
    185 H90         7.5980    7.2060    0.4100 ho        1 MOL      0.496349
    186 H91         7.1400    8.2000   -0.6320 ho        1 MOL      0.496349
@<TRIPOS>BOND
     1    1    2 1   
     2    1    4 1   
     3    1    5 1   
     4    1    6 1   
     5    2    3 2   
     6    2    7 1   
     7    7    8 1   
     8    7   15 1   
     9    8    9 1   
    10    8   11 1   
    11    8   16 1   
    12    9   10 2   
    13    9   19 1   
    14   11   12 1   
    15   11   17 1   
    16   11   18 1   
    17   12   13 1   
    18   12   14 1   
    19   19   20 1   
    20   19   28 1   
    21   20   21 1   
    22   20   23 1   
    23   20   29 1   
    24   21   22 2   
    25   21   41 1   
    26   23   24 1   
    27   23   30 1   
    28   23   31 1   
    29   24   25 1   
    30   24   32 1   
    31   24   33 1   
    32   25   26 1   
    33   25   34 1   
    34   25   35 1   
    35   26   27 1   
    36   26   36 1   
    37   26   37 1   
    38   27   38 1   
    39   27   39 1   
    40   27   40 1   
    41   41   42 1   
    42   41   49 1   
    43   42   43 1   
    44   42   45 1   
    45   42   50 1   
    46   43   44 2   
    47   43   53 1   
    48   45   46 1   
    49   45   51 1   
    50   45   52 1   
    51   46   47 1   
    52   46   48 1   
    53   53   54 1   
    54   53   57 1   
    55   54   55 1   
    56   54   58 1   
    57   54   59 1   
    58   55   56 2   
    59   55   60 1   
    60   60   61 1   
    61   60   68 1   
    62   61   62 1   
    63   61   64 1   
    64   61   69 1   
    65   62   63 2   
    66   62   72 1   
    67   64   65 1   
    68   64   70 1   
    69   64   71 1   
    70   65   66 1   
    71   65   67 1   
    72   72   73 1   
    73   72   76 1   
    74   73   74 1   
    75   73   77 1   
    76   73   78 1   
    77   74   75 2   
    78   74   79 1   
    79   79   80 1   
    80   79   86 1   
    81   80   81 1   
    82   80   83 1   
    83   80   87 1   
    84   81   82 2   
    85   81   93 1   
    86   83   84 1   
    87   83   85 1   
    88   83   88 1   
    89   84   90 1   
    90   84   91 1   
    91   84   92 1   
    92   85   89 1   
    93   93   94 1   
    94   93  101 1   
    95   94   95 1   
    96   94   97 1   
    97   94  102 1   
    98   95   96 2   
    99   95  112 1   
   100   97   98 1   
   101   97   99 1   
   102   97  103 1   
   103   98  100 1   
   104   98  104 1   
   105   98  105 1   
   106   99  106 1   
   107   99  107 1   
   108   99  108 1   
   109  100  109 1   
   110  100  110 1   
   111  100  111 1   
   112  112  113 1   
   113  112  119 1   
   114  113  114 1   
   115  113  116 1   
   116  113  120 1   
   117  114  115 2   
   118  114  126 1   
   119  116  117 1   
   120  116  118 1   
   121  116  121 1   
   122  117  123 1   
   123  117  124 1   
   124  117  125 1   
   125  118  122 1   
   126  126  127 1   
   127  126  133 1   
   128  127  128 1   
   129  127  130 1   
   130  127  134 1   
   131  128  129 2   
   132  128  140 1   
   133  130  131 1   
   134  130  132 1   
   135  130  135 1   
   136  131  137 1   
   137  131  138 1   
   138  131  139 1   
   139  132  136 1   
   140  140  141 1   
   141  140  149 1   
   142  141  142 1   
   143  141  144 1   
   144  141  150 1   
   145  142  143 2   
   146  142  162 1   
   147  144  145 1   
   148  144  151 1   
   149  144  152 1   
   150  145  146 1   
   151  145  153 1   
   152  145  154 1   
   153  146  147 1   
   154  146  155 1   
   155  146  156 1   
   156  147  148 1   
   157  147  157 1   
   158  147  158 1   
   159  148  159 1   
   160  148  160 1   
   161  148  161 1   
   162  162  163 1   
   163  162  171 1   
   164  163  164 1   
   165  163  166 1   
   166  163  172 1   
   167  164  165 2   
   168  164  177 1   
   169  166  167 1   
   170  166  173 1   
   171  166  174 1   
   172  167  168 1   
   173  167  175 1   
   174  167  176 1   
   175  168  169 1   
   176  168  170 1   
   177  177  178 1   
   178  177  182 1   
   179  178  179 1   
   180  178  180 1   
   181  178  181 1   
   182  184  185 1   
   183  184  186 1   
@<TRIPOS>SUBSTRUCTURE
     1 MOL         1 TEMP              0 ****  ****    0 ROOT
