@<TRIPOS>MOLECULE
MOL
  192   187     1     0     0
SMALL
resp


@<TRIPOS>ATOM
      1 C1          9.2220    0.6630    1.6910 c3        1 MOL     -0.462558
      2 C2          8.1010    0.3310    0.7020 c         1 MOL      0.780627
      3 O1          6.9030    0.2380    1.0440 o         1 MOL     -0.702304
      4 H1          8.8790    0.4680    2.7070 hc        1 MOL      0.119648
      5 H2         10.0910    0.0410    1.4760 hc        1 MOL      0.119648
      6 H3          9.4920    1.7140    1.5940 hc        1 MOL      0.119648
      7 N1          8.3820   -0.0350   -0.5350 n         1 MOL     -0.545561
      8 C3          7.3510   -0.3100   -1.5760 c3        1 MOL     -0.012252
      9 C4          6.7020   -1.7580   -1.4770 c         1 MOL      0.416966
     10 O2          6.3320   -2.4590   -2.4190 o         1 MOL     -0.459135
     11 C5          7.9610   -0.0430   -2.9410 c3        1 MOL     -0.014117
     12 C6          9.3160   -0.6200   -3.2730 c         1 MOL      0.630459
     13 O3          9.8910   -0.1580   -4.3410 o         1 MOL     -0.639960
     14 O4          9.7150   -1.6620   -2.6660 o         1 MOL     -0.639960
     15 H4          9.3860   -0.0630   -0.7020 hn        1 MOL      0.269692
     16 H5          6.5590    0.4250   -1.4780 h1        1 MOL      0.148781
     17 H6          8.0900    1.0360   -3.0410 hc        1 MOL      0.021560
     18 H7          7.2540   -0.3280   -3.7170 hc        1 MOL      0.021560
     19 N2          6.5150   -2.2930   -0.3150 n         1 MOL     -0.252008
     20 C7          6.0110   -3.6210   -0.0670 c3        1 MOL     -0.031111
     21 C8          4.4440   -3.7750   -0.3580 c         1 MOL      0.495738
     22 O5          4.0260   -4.7720   -0.8280 o         1 MOL     -0.525156
     23 C9          6.3870   -4.0550    1.3530 c3        1 MOL      0.058117
     24 C10         7.8620   -4.1810    1.8690 c3        1 MOL      0.031788
     25 C11         7.9980   -4.9050    3.1960 c3        1 MOL     -0.071501
     26 C12         9.4640   -4.8660    3.6370 c3        1 MOL      0.087150
     27 N3          9.7470   -5.8030    4.8030 n4        1 MOL     -0.211269
     28 H8          6.7680   -1.6660    0.4330 hn        1 MOL      0.211988
     29 H9          6.5070   -4.3430   -0.7170 h1        1 MOL      0.118946
     30 H10         5.8230   -4.9520    1.6280 hc        1 MOL     -0.014013
     31 H11         6.0370   -3.3040    2.0590 hc        1 MOL     -0.014013
     32 H12         8.2920   -3.1730    1.8890 hc        1 MOL      0.005719
     33 H13         8.3330   -4.6910    1.0240 hc        1 MOL      0.005719
     34 H14         7.5860   -5.9090    3.0970 hc        1 MOL      0.036093
     35 H15         7.4070   -4.3720    3.9490 hc        1 MOL      0.036093
     36 H16         9.7980   -3.8520    3.8630 hx        1 MOL      0.063448
     37 H17        10.0910   -5.1180    2.7910 hx        1 MOL      0.063448
     38 H18         9.2100   -6.6530    4.6690 hn        1 MOL      0.232565
     39 H19        10.7220   -5.9330    5.0230 hn        1 MOL      0.232565
     40 H20         9.3230   -5.4760    5.6530 hn        1 MOL      0.232565
     41 N4          3.6180   -2.7300   -0.1950 n         1 MOL     -0.359328
     42 C13         3.7320   -1.5410    0.6830 c3        1 MOL      0.063354
     43 C14         3.7540   -0.2590   -0.0540 c         1 MOL      0.041233
     44 O6          3.6730   -0.3080   -1.3050 o         1 MOL     -0.364105
     45 C15         2.5290   -1.5240    1.6440 c3        1 MOL     -0.366923
     46 C16         1.0950   -1.5680    1.0860 c         1 MOL      0.985787
     47 O7          0.7190   -0.4720    0.5650 o         1 MOL     -0.795040
     48 O8          0.4330   -2.6090    0.9630 o         1 MOL     -0.795040
     49 H21         2.7460   -2.8400   -0.7010 hn        1 MOL      0.353036
     50 H22         4.6620   -1.6330    1.2470 h1        1 MOL      0.139679
     51 H23         2.6210   -0.6690    2.3130 hc        1 MOL      0.042881
     52 H24         2.6930   -2.4160    2.2560 hc        1 MOL      0.042881
     53 N5          4.0220    0.8130    0.6560 n         1 MOL     -0.241188
     54 C17         4.3090    2.1140    0.0980 c3        1 MOL      0.076391
     55 C18         3.0870    2.7610   -0.5320 c         1 MOL      0.450705
     56 O9          2.0210    2.1850   -0.6660 o         1 MOL     -0.454216
     57 H25         3.9920    0.6570    1.6570 hn        1 MOL      0.296277
     58 H26         5.1580    2.0910   -0.5850 h1        1 MOL      0.041215
     59 H27         4.6380    2.8210    0.8620 h1        1 MOL      0.041215
     60 N6          3.1490    4.0820   -0.8270 n         1 MOL     -0.308661
     61 C19         2.1710    4.8340   -1.5710 c3        1 MOL      0.023571
     62 C20         2.3220    6.3920   -1.4320 c         1 MOL      0.586503
     63 O10         3.3450    6.8700   -1.0610 o         1 MOL     -0.552269
     64 C21         2.0920    4.3560   -3.0840 c3        1 MOL     -0.264603
     65 C22         1.4260    2.9970   -3.2140 c         1 MOL      0.722187
     66 O11         0.2240    2.8300   -2.8270 o         1 MOL     -0.668429
     67 O12         1.9620    2.1840   -3.9590 o         1 MOL     -0.668429
     68 H28         3.9780    4.5860   -0.5300 hn        1 MOL      0.212521
     69 H29         1.2450    4.5650   -1.0750 h1        1 MOL      0.107015
     70 H30         3.0980    4.2800   -3.4870 hc        1 MOL      0.072025
     71 H31         1.4500    5.0620   -3.6130 hc        1 MOL      0.072025
     72 N7          1.3320    7.2490   -1.7080 n         1 MOL     -0.494019
     73 C23        -0.0440    7.0270   -2.0310 c3        1 MOL      0.048799
     74 C24        -0.8360    6.5760   -0.8170 c         1 MOL      0.631522
     75 O13        -0.5890    7.0340    0.3130 o         1 MOL     -0.527682
     76 H32         1.6880    8.1960   -1.7370 hn        1 MOL      0.309533
     77 H33        -0.0870    6.2810   -2.8130 h1        1 MOL      0.043780
     78 H34        -0.5000    7.9530   -2.3750 h1        1 MOL      0.043780
     79 N8         -1.8660    5.7550   -1.0840 n         1 MOL     -0.669967
     80 C25        -2.5890    5.1420   -0.0120 c3        1 MOL      0.062812
     81 C26        -1.7130    4.0860    0.6240 c         1 MOL      0.847138
     82 O14        -1.0440    3.3200   -0.1190 o         1 MOL     -0.685197
     83 C27        -3.8920    4.5940   -0.4830 c3        1 MOL      0.426029
     84 C28        -4.6930    3.9190    0.5740 c3        1 MOL     -0.387774
     85 O15        -3.8090    3.7310   -1.5620 oh        1 MOL     -0.710832
     86 H35        -2.1560    5.5860   -2.0300 hn        1 MOL      0.322534
     87 H36        -2.8770    5.9480    0.6640 h1        1 MOL      0.044506
     88 H37        -4.5490    5.4490   -0.6440 h1        1 MOL      0.003193
     89 H38        -4.3900    3.9520   -2.2910 ho        1 MOL      0.461199
     90 H39        -5.6350    3.6120    0.1270 hc        1 MOL      0.099827
     91 H40        -4.2440    2.9780    0.8590 hc        1 MOL      0.099827
     92 H41        -4.8360    4.5130    1.4770 hc        1 MOL      0.099827
     93 N9         -1.8810    3.8640    1.9420 n         1 MOL     -0.813931
     94 C29        -1.2040    2.9530    2.7810 c3        1 MOL     -0.090926
     95 C30        -1.5600    1.4480    2.4360 c         1 MOL      0.798453
     96 O16        -1.6400    1.0010    1.3090 o         1 MOL     -0.587086
     97 C31         0.3350    3.1910    2.8640 c3        1 MOL      0.193026
     98 C32         0.8050    4.6570    3.2560 c3        1 MOL      0.128661
     99 C33         0.9540    2.2120    3.8170 c3        1 MOL     -0.480674
    100 C34         2.2740    4.8200    2.9720 c3        1 MOL     -0.189673
    101 H42        -2.5770    4.3600    2.4650 hn        1 MOL      0.376077
    102 H43        -1.7060    3.2400    3.7070 h1        1 MOL      0.084772
    103 H44         0.7430    3.0150    1.8670 hc        1 MOL      0.041997
    104 H45         0.6560    4.7970    4.3300 hc        1 MOL     -0.027950
    105 H46         0.3010    5.4000    2.6490 hc        1 MOL     -0.027950
    106 H47         0.3550    2.1040    4.7190 hc        1 MOL      0.125837
    107 H48         0.9560    1.2890    3.2480 hc        1 MOL      0.125837
    108 H49         2.0110    2.4260    3.9870 hc        1 MOL      0.125837
    109 H50         2.4750    5.8250    2.5990 hc        1 MOL      0.040629
    110 H51         2.9140    4.4540    3.7690 hc        1 MOL      0.040629
    111 H52         2.5100    4.2440    2.0760 hc        1 MOL      0.040629
    112 N10        -1.7760    0.7220    3.4770 n         1 MOL     -0.570389
    113 C35        -1.9190   -0.7350    3.4170 c3        1 MOL      0.077903
    114 C36        -3.3740   -1.1480    3.4320 c         1 MOL      0.658901
    115 O17        -3.7860   -1.9170    4.2440 o         1 MOL     -0.579457
    116 C37        -0.9870   -1.4730    4.4660 c3        1 MOL      0.455455
    117 C38        -1.2270   -0.8900    5.8580 c3        1 MOL     -0.479065
    118 O18         0.3480   -1.1970    4.0620 oh        1 MOL     -0.596166
    119 H53        -1.7600    1.1280    4.4000 hn        1 MOL      0.279303
    120 H54        -1.5720   -1.1470    2.4780 h1        1 MOL     -0.083128
    121 H55        -1.1000   -2.5580    4.4640 h1        1 MOL      0.003910
    122 H56         0.7930   -2.0480    4.1240 ho        1 MOL      0.381621
    123 H57        -0.9410   -1.6480    6.5860 hc        1 MOL      0.114124
    124 H58        -0.6220    0.0020    6.0100 hc        1 MOL      0.114124
    125 H59        -2.2830   -0.7500    6.0510 hc        1 MOL      0.114124
    126 N11        -4.1600   -0.6120    2.5170 n         1 MOL     -0.445729
    127 C39        -5.6100   -0.9270    2.4110 c3        1 MOL     -0.125452
    128 C40        -5.9660   -1.2140    0.9330 c         1 MOL      0.611728
    129 O19        -5.5490   -0.5540    0.0030 o         1 MOL     -0.437663
    130 C41        -6.5920    0.1610    3.0020 c3        1 MOL      0.398255
    131 C42        -6.2530    1.5790    2.6030 c3        1 MOL     -0.422040
    132 O20        -7.9200   -0.2480    2.7120 oh        1 MOL     -0.606857
    133 H60        -3.7880   -0.0420    1.7680 hn        1 MOL      0.203151
    134 H61        -5.7330   -1.8070    3.0290 h1        1 MOL      0.085495
    135 H62        -6.5050    0.0900    4.0910 h1        1 MOL      0.011106
    136 H63        -8.3400   -0.3520    3.5650 ho        1 MOL      0.377374
    137 H64        -6.7800    2.1600    3.3680 hc        1 MOL      0.110325
    138 H65        -5.1840    1.8020    2.5880 hc        1 MOL      0.110325
    139 H66        -6.6050    1.7210    1.5800 hc        1 MOL      0.110325
    140 N12        -6.7600   -2.3120    0.6120 n         1 MOL     -0.489129
    141 C43        -7.0900   -2.7130   -0.7560 c3        1 MOL      0.341434
    142 C44        -5.9460   -2.5000   -1.7650 c         1 MOL      0.465509
    143 O21        -6.1500   -1.8590   -2.7510 o         1 MOL     -0.528591
    144 C45        -8.4610   -2.1680   -1.1450 c3        1 MOL     -0.444739
    145 C46        -9.6530   -2.5430   -0.1960 c3        1 MOL      0.138178
    146 C47       -10.9880   -1.8650   -0.6800 c3        1 MOL     -0.051185
    147 C48       -12.0280   -2.0960    0.4220 c3        1 MOL      0.013827
    148 N13       -13.2380   -1.2890    0.0820 n4        1 MOL     -0.070255
    149 H67        -7.1440   -2.7870    1.4190 hn        1 MOL      0.233306
    150 H68        -7.3080   -3.7880   -0.7600 h1        1 MOL      0.017062
    151 H69        -8.7530   -2.5820   -2.1080 hc        1 MOL      0.128489
    152 H70        -8.3200   -1.0900   -1.2240 hc        1 MOL      0.128489
    153 H71        -9.5140   -2.0680    0.7760 hc        1 MOL      0.005878
    154 H72        -9.6870   -3.6070    0.0380 hc        1 MOL      0.005878
    155 H73       -11.2390   -2.2770   -1.6590 hc        1 MOL      0.042138
    156 H74       -10.8340   -0.7840   -0.7660 hc        1 MOL      0.042138
    157 H75       -11.6140   -1.8430    1.3980 hx        1 MOL      0.057628
    158 H76       -12.3340   -3.1390    0.3270 hx        1 MOL      0.057628
    159 H77       -13.1100   -0.2880    0.0350 hn        1 MOL      0.173112
    160 H78       -13.4760   -1.5570   -0.8600 hn        1 MOL      0.173112
    161 H79       -14.0030   -1.6080    0.6580 hn        1 MOL      0.173112
    162 N14        -4.7630   -3.0290   -1.4160 n         1 MOL     -0.511301
    163 C49        -3.4640   -2.8870   -2.1120 c3        1 MOL      0.614843
    164 C50        -2.3130   -2.4590   -1.2170 c         1 MOL      0.151488
    165 O22        -1.6070   -1.4300   -1.5270 o         1 MOL     -0.541882
    166 C51        -3.1550   -4.1390   -2.9320 c3        1 MOL      0.029546
    167 C52        -4.1210   -4.4460   -4.0440 c3        1 MOL     -0.227438
    168 C53        -3.8570   -5.7510   -4.7630 c         1 MOL      0.705841
    169 O23        -2.8630   -5.9260   -5.4750 o         1 MOL     -0.623953
    170 O24        -4.6830   -6.6390   -4.5540 o         1 MOL     -0.623953
    171 H80        -4.9220   -3.5460   -0.5600 hn        1 MOL      0.168406
    172 H81        -3.5310   -2.0060   -2.7510 h1        1 MOL     -0.004023
    173 H82        -3.0930   -5.0160   -2.2840 hc        1 MOL      0.017045
    174 H83        -2.1640   -4.0330   -3.3850 hc        1 MOL      0.017045
    175 H84        -4.1030   -3.5550   -4.6780 hc        1 MOL      0.015001
    176 H85        -5.0650   -4.4380   -3.4960 hc        1 MOL      0.015001
    177 N15        -2.0480   -3.0980   -0.0460 n         1 MOL     -0.237121
    178 C54        -2.5420   -4.3890    0.3140 c3        1 MOL     -0.199316
    179 H86        -3.0710   -4.8250   -0.5340 h1        1 MOL      0.074438
    180 H87        -1.7070   -5.0340    0.5910 h1        1 MOL      0.074438
    181 H88        -3.2240   -4.2950    1.1580 h1        1 MOL      0.074438
    182 H89        -1.2880   -2.6930    0.4740 hn        1 MOL      0.452138
    183 Ca1        -0.4910    0.8550   -1.1110 Ca        1 MOL      1.737363
    184 O25         1.3620   -0.1710   -2.5660 oh        1 MOL     -0.821792
    185 H90         1.4770    0.4640   -3.2800 ho        1 MOL      0.388633
    186 H91         2.1430   -0.0860   -2.0250 ho        1 MOL      0.388633
    187 O26        -1.3320    0.2510   -3.8730 oh        1 MOL     -0.821792
    188 H92        -1.9880   -0.1910   -4.4040 ho        1 MOL      0.388633
    189 H93        -1.1430    1.0590   -4.3550 ho        1 MOL      0.388633
    190 O27        -3.2260    1.1660   -1.1950 oh        1 MOL     -0.821792
    191 H94        -4.0910    0.7990   -1.0680 ho        1 MOL      0.388633
    192 H95        -3.3740    2.1040   -1.3200 ho        1 MOL      0.388633
@<TRIPOS>BOND
     1    1    2 1   
     2    1    4 1   
     3    1    5 1   
     4    1    6 1   
     5    2    3 2   
     6    2    7 1   
     7    7    8 1   
     8    7   15 1   
     9    8    9 1   
    10    8   11 1   
    11    8   16 1   
    12    9   10 2   
    13    9   19 1   
    14   11   12 1   
    15   11   17 1   
    16   11   18 1   
    17   12   13 1   
    18   12   14 1   
    19   19   20 1   
    20   19   28 1   
    21   20   21 1   
    22   20   23 1   
    23   20   29 1   
    24   21   22 2   
    25   21   41 1   
    26   23   24 1   
    27   23   30 1   
    28   23   31 1   
    29   24   25 1   
    30   24   32 1   
    31   24   33 1   
    32   25   26 1   
    33   25   34 1   
    34   25   35 1   
    35   26   27 1   
    36   26   36 1   
    37   26   37 1   
    38   27   38 1   
    39   27   39 1   
    40   27   40 1   
    41   41   42 1   
    42   41   49 1   
    43   42   43 1   
    44   42   45 1   
    45   42   50 1   
    46   43   44 2   
    47   43   53 1   
    48   45   46 1   
    49   45   51 1   
    50   45   52 1   
    51   46   47 1   
    52   46   48 1   
    53   53   54 1   
    54   53   57 1   
    55   54   55 1   
    56   54   58 1   
    57   54   59 1   
    58   55   56 2   
    59   55   60 1   
    60   60   61 1   
    61   60   68 1   
    62   61   62 1   
    63   61   64 1   
    64   61   69 1   
    65   62   63 2   
    66   62   72 1   
    67   64   65 1   
    68   64   70 1   
    69   64   71 1   
    70   65   66 1   
    71   65   67 1   
    72   72   73 1   
    73   72   76 1   
    74   73   74 1   
    75   73   77 1   
    76   73   78 1   
    77   74   75 2   
    78   74   79 1   
    79   79   80 1   
    80   79   86 1   
    81   80   81 1   
    82   80   83 1   
    83   80   87 1   
    84   81   82 2   
    85   81   93 1   
    86   83   84 1   
    87   83   85 1   
    88   83   88 1   
    89   84   90 1   
    90   84   91 1   
    91   84   92 1   
    92   85   89 1   
    93   93   94 1   
    94   93  101 1   
    95   94   95 1   
    96   94   97 1   
    97   94  102 1   
    98   95   96 2   
    99   95  112 1   
   100   97   98 1   
   101   97   99 1   
   102   97  103 1   
   103   98  100 1   
   104   98  104 1   
   105   98  105 1   
   106   99  106 1   
   107   99  107 1   
   108   99  108 1   
   109  100  109 1   
   110  100  110 1   
   111  100  111 1   
   112  112  113 1   
   113  112  119 1   
   114  113  114 1   
   115  113  116 1   
   116  113  120 1   
   117  114  115 2   
   118  114  126 1   
   119  116  117 1   
   120  116  118 1   
   121  116  121 1   
   122  117  123 1   
   123  117  124 1   
   124  117  125 1   
   125  118  122 1   
   126  126  127 1   
   127  126  133 1   
   128  127  128 1   
   129  127  130 1   
   130  127  134 1   
   131  128  129 2   
   132  128  140 1   
   133  130  131 1   
   134  130  132 1   
   135  130  135 1   
   136  131  137 1   
   137  131  138 1   
   138  131  139 1   
   139  132  136 1   
   140  140  141 1   
   141  140  149 1   
   142  141  142 1   
   143  141  144 1   
   144  141  150 1   
   145  142  143 2   
   146  142  162 1   
   147  144  145 1   
   148  144  151 1   
   149  144  152 1   
   150  145  146 1   
   151  145  153 1   
   152  145  154 1   
   153  146  147 1   
   154  146  155 1   
   155  146  156 1   
   156  147  148 1   
   157  147  157 1   
   158  147  158 1   
   159  148  159 1   
   160  148  160 1   
   161  148  161 1   
   162  162  163 1   
   163  162  171 1   
   164  163  164 1   
   165  163  166 1   
   166  163  172 1   
   167  164  165 2   
   168  164  177 1   
   169  166  167 1   
   170  166  173 1   
   171  166  174 1   
   172  167  168 1   
   173  167  175 1   
   174  167  176 1   
   175  168  169 1   
   176  168  170 1   
   177  177  178 1   
   178  177  182 1   
   179  178  179 1   
   180  178  180 1   
   181  178  181 1   
   182  184  185 1   
   183  184  186 1   
   184  187  188 1   
   185  187  189 1   
   186  190  191 1   
   187  190  192 1   
@<TRIPOS>SUBSTRUCTURE
     1 MOL         1 TEMP              0 ****  ****    0 ROOT
