@<TRIPOS>MOLECULE
MOL
  185   180     1     0     0
SMALL
resp


@<TRIPOS>ATOM
      1 C1         -5.4290    0.8580   -3.1950 c3        1 MOL     -0.362025
      2 C2         -6.2160    1.2310   -1.9010 c         1 MOL      0.559747
      3 O1         -5.6300    1.3080   -0.7430 o         1 MOL     -0.405552
      4 H1         -5.6250   -0.1840   -3.4510 hc        1 MOL      0.093808
      5 H2         -5.7520    1.4990   -4.0150 hc        1 MOL      0.093808
      6 H3         -4.3610    0.9950   -3.0240 hc        1 MOL      0.093808
      7 N1         -7.4970    1.5160   -2.0150 n         1 MOL     -0.449800
      8 C3         -8.4660    1.6390   -0.9130 c3        1 MOL      0.052994
      9 C4         -8.2850    0.5650    0.2120 c         1 MOL      0.414250
     10 O2         -8.4630    0.8210    1.4170 o         1 MOL     -0.472542
     11 C5         -8.4450    3.0460   -0.2660 c3        1 MOL     -0.275347
     12 C6         -8.1640    4.2160   -1.2970 c         1 MOL      0.743012
     13 O3         -7.5360    5.2440   -0.9330 o         1 MOL     -0.682147
     14 O4         -8.6870    4.1430   -2.4400 o         1 MOL     -0.682147
     15 H4         -7.9430    1.4620   -2.9270 hn        1 MOL      0.299988
     16 H5         -9.4240    1.4680   -1.4080 h1        1 MOL      0.076797
     17 H6         -7.7660    3.0840    0.5880 hc        1 MOL      0.086223
     18 H7         -9.4280    3.1700    0.1960 hc        1 MOL      0.086223
     19 N2         -7.9610   -0.7020   -0.1700 n         1 MOL     -0.475973
     20 C7         -7.9450   -1.9100    0.6110 c3        1 MOL      0.350836
     21 C8         -6.4930   -2.3030    0.7930 c         1 MOL      0.510359
     22 O5         -6.3310   -3.4840    1.1030 o         1 MOL     -0.572437
     23 C9         -8.6390   -3.0560   -0.0460 c3        1 MOL     -0.240312
     24 C10       -10.0770   -2.6750   -0.2520 c3        1 MOL      0.129907
     25 C11       -10.9420   -3.7990   -0.8890 c3        1 MOL      0.047805
     26 C12       -12.2880   -3.2600   -1.3310 c3        1 MOL     -0.016448
     27 N3        -13.0150   -4.2770   -2.0750 n4        1 MOL     -0.213464
     28 H8         -7.6630   -0.8120   -1.1360 hn        1 MOL      0.211450
     29 H9         -8.3410   -1.6860    1.6060 h1        1 MOL      0.025889
     30 H10        -8.6680   -3.9640    0.5470 hc        1 MOL      0.063450
     31 H11        -8.1530   -3.1880   -1.0090 hc        1 MOL      0.063450
     32 H12       -10.2500   -1.7940   -0.8770 hc        1 MOL     -0.018894
     33 H13       -10.6120   -2.4060    0.6620 hc        1 MOL     -0.018894
     34 H14       -11.0480   -4.6510   -0.2210 hc        1 MOL      0.000722
     35 H15       -10.4280   -4.1060   -1.8000 hc        1 MOL      0.000722
     36 H16       -12.1390   -2.2990   -1.8270 hx        1 MOL      0.089378
     37 H17       -12.8600   -3.1090   -0.4150 hx        1 MOL      0.089378
     38 H18       -12.7170   -4.5690   -2.9930 hn        1 MOL      0.277670
     39 H19       -12.8370   -5.1380   -1.5690 hn        1 MOL      0.277670
     40 H20       -13.9840   -4.0280   -2.1580 hn        1 MOL      0.277670
     41 N4         -5.4930   -1.4450    0.5270 n         1 MOL     -0.415755
     42 C13        -4.1430   -1.8480    0.2780 c3        1 MOL     -0.101349
     43 C14        -3.6000   -2.4220    1.6110 c         1 MOL      0.644923
     44 O6         -3.7700   -1.7590    2.6390 o         1 MOL     -0.528680
     45 C15        -3.2980   -0.7160   -0.3320 c3        1 MOL     -0.209941
     46 C16        -1.8870   -1.1760   -0.4510 c         1 MOL      0.594418
     47 O7         -1.6060   -1.7590   -1.4630 o         1 MOL     -0.699338
     48 O8         -1.0180   -0.9590    0.4600 o         1 MOL     -0.699338
     49 H21        -5.6930   -0.4650    0.6520 hn        1 MOL      0.266590
     50 H22        -4.0490   -2.6460   -0.4610 h1        1 MOL      0.074948
     51 H23        -3.3520    0.2280    0.2000 hc        1 MOL      0.151308
     52 H24        -3.6120   -0.5150   -1.3550 hc        1 MOL      0.151308
     53 N5         -2.9430   -3.5490    1.4780 n         1 MOL     -0.363853
     54 C17        -2.3490   -4.2430    2.6150 c3        1 MOL      0.033470
     55 C18        -1.4690   -3.4560    3.6040 c         1 MOL      0.508008
     56 O9         -1.4640   -3.7970    4.7550 o         1 MOL     -0.550114
     57 H25        -2.9790   -4.0280    0.5920 hn        1 MOL      0.261012
     58 H26        -1.7380   -5.0730    2.2560 h1        1 MOL      0.052642
     59 H27        -3.1500   -4.7580    3.1510 h1        1 MOL      0.052642
     60 N6         -0.8800   -2.2930    3.2740 n         1 MOL     -0.158603
     61 C19        -0.2280   -1.3370    4.1780 c3        1 MOL     -0.147129
     62 C20        -0.6230    0.1260    3.9310 c         1 MOL      0.441684
     63 O10         0.0130    1.0910    4.3010 o         1 MOL     -0.527913
     64 C21         1.2900   -1.5250    4.0310 c3        1 MOL     -0.108237
     65 C22         1.8700   -0.9810    2.7640 c         1 MOL      0.695623
     66 N7          2.2020    0.2910    2.7420 n         1 MOL     -0.785849
     67 O11         2.0570   -1.6520    1.7870 o         1 MOL     -0.672380
     68 H28        -0.8000   -1.9960    2.3100 hn        1 MOL      0.091613
     69 H29        -0.4790   -1.5510    5.2160 h1        1 MOL      0.162809
     70 H30         1.6710   -2.5100    4.2720 hc        1 MOL      0.065857
     71 H31         1.7960   -1.0400    4.8640 hc        1 MOL      0.065857
     72 H32         2.3960    0.8670    3.5430 hn        1 MOL      0.365950
     73 H33         2.4750    0.6100    1.8290 hn        1 MOL      0.365950
     74 N8         -1.7300    0.4510    3.2840 n         1 MOL     -0.085833
     75 C23        -2.2530    1.8260    3.2520 c3        1 MOL     -0.324578
     76 C24        -1.5730    2.6670    2.1530 c         1 MOL      0.515579
     77 O12        -1.7460    3.9070    2.0710 o         1 MOL     -0.520305
     78 H34        -2.3560   -0.2400    2.9000 hn        1 MOL      0.120896
     79 H35        -2.1310    2.3190    4.2230 h1        1 MOL      0.173449
     80 H36        -3.3330    1.7620    3.0980 h1        1 MOL      0.173449
     81 N9         -0.7680    2.0800    1.2370 n         1 MOL     -0.276036
     82 C25        -0.0270    2.7020    0.1880 c3        1 MOL      0.276388
     83 C26         1.3230    2.0990   -0.0250 c         1 MOL      0.302016
     84 O13         1.4430    0.9070    0.1900 o         1 MOL     -0.253356
     85 C27        -0.8910    2.6950   -1.1430 c3        1 MOL      0.082736
     86 C28        -2.0290    3.7070   -1.1410 ca        1 MOL     -0.221114
     87 C29        -1.8080    5.0570   -1.4830 ca        1 MOL     -0.101616
     88 C30        -3.3190    3.3720   -0.6360 ca        1 MOL     -0.101616
     89 C31        -2.8830    5.9750   -1.4560 ca        1 MOL     -0.204432
     90 C32        -4.3740    4.2960   -0.7010 ca        1 MOL     -0.204432
     91 C33        -4.1260    5.6340   -1.0510 ca        1 MOL      0.415556
     92 O14        -5.1970    6.4620   -1.0040 oh        1 MOL     -0.591083
     93 H37        -0.6840    1.0920    1.4070 hn        1 MOL      0.054845
     94 H38         0.1090    3.7490    0.4710 h1        1 MOL     -0.002950
     95 H39        -1.3260    1.6950   -1.1740 hc        1 MOL     -0.012209
     96 H40        -0.1970    2.9160   -1.9570 hc        1 MOL     -0.012209
     97 H41        -0.8170    5.4250   -1.6740 ha        1 MOL      0.091088
     98 H42        -3.5460    2.4150   -0.2050 ha        1 MOL      0.091088
     99 H43        -2.6610    6.9320   -1.8950 ha        1 MOL      0.094775
    100 H44        -5.3250    3.9950   -0.2970 ha        1 MOL      0.094775
    101 H45        -6.0270    6.0020   -0.9030 ho        1 MOL      0.442827
    102 N10         2.2040    2.8650   -0.6710 n         1 MOL     -0.622212
    103 C34         3.5170    2.3690   -1.1080 c3        1 MOL      0.490494
    104 C35         4.4740    2.1020    0.0550 c         1 MOL      0.066377
    105 O15         4.9330    0.9310    0.1800 o         1 MOL     -0.439598
    106 C36         4.1770    3.3500   -2.1490 c3        1 MOL      0.096436
    107 C37         3.2920    3.6810   -3.3560 c3        1 MOL     -0.096684
    108 C38         5.6380    2.8190   -2.4880 c3        1 MOL     -0.529437
    109 C39         2.9840    2.4890   -4.2570 c3        1 MOL     -0.014092
    110 H46         1.9070    3.8260   -0.8010 hn        1 MOL      0.320010
    111 H47         3.3860    1.4250   -1.6350 h1        1 MOL     -0.055193
    112 H48         4.1860    4.2610   -1.5400 hc        1 MOL     -0.066146
    113 H49         3.8090    4.3970   -3.9950 hc        1 MOL      0.036344
    114 H50         2.3290    4.0780   -3.0320 hc        1 MOL      0.036344
    115 H51         5.6050    1.7990   -2.8500 hc        1 MOL      0.156720
    116 H52         5.9900    3.5080   -3.2520 hc        1 MOL      0.156720
    117 H53         6.3250    2.9280   -1.6520 hc        1 MOL      0.156720
    118 H54         3.8750    2.0010   -4.6410 hc        1 MOL      0.024866
    119 H55         2.3260    1.7970   -3.7480 hc        1 MOL      0.024866
    120 H56         2.4180    2.7390   -5.1570 hc        1 MOL      0.024866
    121 N11         4.9290    3.0990    0.7850 n         1 MOL     -0.232078
    122 C40         5.6220    2.9100    2.1080 c3        1 MOL      0.065401
    123 C41         7.1120    2.5700    1.8520 c         1 MOL      0.157875
    124 O16         7.7450    1.8750    2.6390 o         1 MOL     -0.434102
    125 C42         5.5580    4.0790    3.0230 c3        1 MOL      0.278559
    126 O17         4.2570    4.3250    3.4460 oh        1 MOL     -0.588750
    127 H57         4.6480    4.0380    0.5400 hn        1 MOL      0.263093
    128 H58         5.0820    2.1370    2.6490 h1        1 MOL      0.140193
    129 H59         5.8880    4.9020    2.3810 h1        1 MOL      0.007113
    130 H60         6.2660    3.9640    3.8380 h1        1 MOL      0.007113
    131 H61         3.9020    5.0450    2.9240 ho        1 MOL      0.389076
    132 N12         7.6700    2.9330    0.6890 n         1 MOL     -0.104269
    133 C43         9.0120    2.4160    0.2410 c3        1 MOL      0.168045
    134 C44         9.1470    0.8890    0.3610 c         1 MOL      0.628977
    135 O18        10.2380    0.3700    0.5590 o         1 MOL     -0.559964
    136 C45        10.1930    3.2650    0.8400 c3        1 MOL     -0.432294
    137 H62         7.1790    3.6190    0.1470 hn        1 MOL      0.156504
    138 H63         9.0750    2.5240   -0.8400 h1        1 MOL      0.021779
    139 H64        10.4860    2.8780    1.8120 hc        1 MOL      0.127295
    140 H65        11.0190    3.0760    0.1560 hc        1 MOL      0.127295
    141 H66         9.8770    4.3020    0.9050 hc        1 MOL      0.127295
    142 N13         8.0350    0.1220    0.2970 n         1 MOL     -0.682293
    143 C46         7.7970   -1.3000    0.5230 c3        1 MOL      0.674877
    144 C47         7.1100   -1.9100   -0.6670 c         1 MOL      0.331962
    145 O19         6.4960   -1.2790   -1.5210 o         1 MOL     -0.402862
    146 C48         7.0130   -1.4340    1.8440 c3        1 MOL     -0.299120
    147 H67         7.2060    0.6680    0.1220 hn        1 MOL      0.165380
    148 H68         8.7110   -1.8780    0.6680 h1        1 MOL     -0.055193
    149 H69         6.1320   -0.7880    1.8520 hc        1 MOL      0.082342
    150 H70         6.7160   -2.4670    2.0220 hc        1 MOL      0.082342
    151 H71         7.8020   -1.2260    2.5620 hc        1 MOL      0.082342
    152 N14         7.3240   -3.2650   -0.8100 n         1 MOL     -0.566634
    153 C49         6.9120   -4.1150   -1.9670 c3        1 MOL     -0.036855
    154 C50         7.4250   -3.5510   -3.3080 c         1 MOL      0.505766
    155 O20         6.7510   -3.7720   -4.2830 o         1 MOL     -0.512875
    156 C51         5.4210   -4.4130   -1.9390 c3        1 MOL      0.062644
    157 C52         4.8410   -4.6650   -0.5140 c3        1 MOL      0.073196
    158 C53         3.3460   -5.0070   -0.4840 c         1 MOL      0.579673
    159 O21         2.5330   -4.1480   -0.8830 o         1 MOL     -0.677235
    160 O22         3.0180   -6.1980   -0.1310 o         1 MOL     -0.677235
    161 H72         7.9030   -3.7360   -0.1300 hn        1 MOL      0.304378
    162 H73         7.3970   -5.0820   -1.8590 h1        1 MOL      0.103549
    163 H74         5.3160   -5.3200   -2.5490 hc        1 MOL      0.008333
    164 H75         4.8760   -3.5650   -2.3330 hc        1 MOL      0.008333
    165 H76         4.9650   -3.7940    0.1320 hc        1 MOL     -0.046606
    166 H77         5.3780   -5.4900   -0.0490 hc        1 MOL     -0.046606
    167 N15         8.5950   -2.9730   -3.3690 n         1 MOL     -0.385476
    168 C54         9.0310   -2.0950   -4.4640 c3        1 MOL     -0.012045
    169 H78         9.3970   -1.1540   -4.0520 h1        1 MOL      0.060873
    170 H79         9.8300   -2.5810   -5.0240 h1        1 MOL      0.060873
    171 H80         8.1890   -1.8970   -5.1280 h1        1 MOL      0.060873
    172 H81         8.9880   -2.7610   -2.4640 hn        1 MOL      0.240375
    173 Ca1         1.1340   -1.9230   -0.7280 Ca        1 MOL      1.725144
    174 O23         0.7720   -3.2000   -3.2340 oh        1 MOL     -0.868179
    175 H82         0.0900   -3.0240   -3.8770 ho        1 MOL      0.419010
    176 H83         1.0360   -4.1080   -3.4090 ho        1 MOL      0.419010
    177 O24         3.7000   -1.1880   -1.1790 oh        1 MOL     -0.868179
    178 H84         4.1430   -0.5500   -0.6120 ho        1 MOL      0.419010
    179 H85         4.4060   -1.7120   -1.5440 ho        1 MOL      0.419010
    180 O25         0.3030   -0.1220   -2.4860 oh        1 MOL     -0.868179
    181 H86         0.3070    0.5890   -3.1270 ho        1 MOL      0.419010
    182 H87        -0.5960   -0.4500   -2.4820 ho        1 MOL      0.419010
    183 O26         0.1180   -4.1450    0.4450 oh        1 MOL     -0.868179
    184 H88        -0.5550   -4.6440   -0.0390 ho        1 MOL      0.419010
    185 H89         0.7560   -4.8070    0.7050 ho        1 MOL      0.419010
@<TRIPOS>BOND
     1    1    2 1   
     2    1    4 1   
     3    1    5 1   
     4    1    6 1   
     5    2    3 2   
     6    2    7 1   
     7    7    8 1   
     8    7   15 1   
     9    8    9 1   
    10    8   11 1   
    11    8   16 1   
    12    9   10 2   
    13    9   19 1   
    14   11   12 1   
    15   11   17 1   
    16   11   18 1   
    17   12   13 1   
    18   12   14 1   
    19   19   20 1   
    20   19   28 1   
    21   20   21 1   
    22   20   23 1   
    23   20   29 1   
    24   21   22 2   
    25   21   41 1   
    26   23   24 1   
    27   23   30 1   
    28   23   31 1   
    29   24   25 1   
    30   24   32 1   
    31   24   33 1   
    32   25   26 1   
    33   25   34 1   
    34   25   35 1   
    35   26   27 1   
    36   26   36 1   
    37   26   37 1   
    38   27   38 1   
    39   27   39 1   
    40   27   40 1   
    41   41   42 1   
    42   41   49 1   
    43   42   43 1   
    44   42   45 1   
    45   42   50 1   
    46   43   44 2   
    47   43   53 1   
    48   45   46 1   
    49   45   51 1   
    50   45   52 1   
    51   46   47 1   
    52   46   48 1   
    53   53   54 1   
    54   53   57 1   
    55   54   55 1   
    56   54   58 1   
    57   54   59 1   
    58   55   56 2   
    59   55   60 1   
    60   60   61 1   
    61   60   68 1   
    62   61   62 1   
    63   61   64 1   
    64   61   69 1   
    65   62   63 2   
    66   62   74 1   
    67   64   65 1   
    68   64   70 1   
    69   64   71 1   
    70   65   66 1   
    71   65   67 2   
    72   66   72 1   
    73   66   73 1   
    74   74   75 1   
    75   74   78 1   
    76   75   76 1   
    77   75   79 1   
    78   75   80 1   
    79   76   77 2   
    80   76   81 1   
    81   81   82 1   
    82   81   93 1   
    83   82   83 1   
    84   82   85 1   
    85   82   94 1   
    86   83   84 2   
    87   83  102 1   
    88   85   86 1   
    89   85   95 1   
    90   85   96 1   
    91   86   87 ar  
    92   86   88 ar  
    93   87   89 ar  
    94   87   97 1   
    95   88   90 ar  
    96   88   98 1   
    97   89   91 ar  
    98   89   99 1   
    99   90   91 ar  
   100   90  100 1   
   101   91   92 1   
   102   92  101 1   
   103  102  103 1   
   104  102  110 1   
   105  103  104 1   
   106  103  106 1   
   107  103  111 1   
   108  104  105 2   
   109  104  121 1   
   110  106  107 1   
   111  106  108 1   
   112  106  112 1   
   113  107  109 1   
   114  107  113 1   
   115  107  114 1   
   116  108  115 1   
   117  108  116 1   
   118  108  117 1   
   119  109  118 1   
   120  109  119 1   
   121  109  120 1   
   122  121  122 1   
   123  121  127 1   
   124  122  123 1   
   125  122  125 1   
   126  122  128 1   
   127  123  124 2   
   128  123  132 1   
   129  125  126 1   
   130  125  129 1   
   131  125  130 1   
   132  126  131 1   
   133  132  133 1   
   134  132  137 1   
   135  133  134 1   
   136  133  136 1   
   137  133  138 1   
   138  134  135 2   
   139  134  142 1   
   140  136  139 1   
   141  136  140 1   
   142  136  141 1   
   143  142  143 1   
   144  142  147 1   
   145  143  144 1   
   146  143  146 1   
   147  143  148 1   
   148  144  145 2   
   149  144  152 1   
   150  146  149 1   
   151  146  150 1   
   152  146  151 1   
   153  152  153 1   
   154  152  161 1   
   155  153  154 1   
   156  153  156 1   
   157  153  162 1   
   158  154  155 2   
   159  154  167 1   
   160  156  157 1   
   161  156  163 1   
   162  156  164 1   
   163  157  158 1   
   164  157  165 1   
   165  157  166 1   
   166  158  159 1   
   167  158  160 1   
   168  167  168 1   
   169  167  172 1   
   170  168  169 1   
   171  168  170 1   
   172  168  171 1   
   173  174  175 1   
   174  174  176 1   
   175  177  178 1   
   176  177  179 1   
   177  180  181 1   
   178  180  182 1   
   179  183  184 1   
   180  183  185 1   
@<TRIPOS>SUBSTRUCTURE
     1 MOL         1 TEMP              0 ****  ****    0 ROOT
