@<TRIPOS>MOLECULE
MOL
  195   189     1     0     0
SMALL
resp


@<TRIPOS>ATOM
      1 C1          3.4820    3.0860    0.3360 c3        1 MOL     -0.115492
      2 C2          2.3980    3.8940   -0.4420 c         1 MOL      0.565871
      3 O1          1.4180    3.2290   -0.7560 o         1 MOL     -0.525361
      4 H1          3.6340    2.1230   -0.1500 hc        1 MOL     -0.006846
      5 H2          4.4190    3.6430    0.3390 hc        1 MOL     -0.006846
      6 H3          3.1490    2.9260    1.3620 hc        1 MOL     -0.006846
      7 N1          2.5420    5.2300   -0.5440 n         1 MOL     -0.528105
      8 C3          1.5400    6.1950   -1.0420 c3        1 MOL      0.116110
      9 C4          0.0610    5.8980   -0.5370 c         1 MOL      0.629099
     10 O2         -0.9160    5.9540   -1.2980 o         1 MOL     -0.427719
     11 C5          1.6610    6.1950   -2.5850 c3        1 MOL     -0.232182
     12 C6          1.0570    7.4010   -3.2490 c         1 MOL      0.606619
     13 O3          0.8830    7.3520   -4.5190 o         1 MOL     -0.603780
     14 O4          0.7720    8.4340   -2.5630 o         1 MOL     -0.603780
     15 H4          3.4130    5.5910   -0.1950 hn        1 MOL      0.295308
     16 H5          1.7760    7.1300   -0.5300 h1        1 MOL      0.046572
     17 H6          1.0900    5.4000   -3.0630 hc        1 MOL      0.082378
     18 H7          2.6790    6.0190   -2.9230 hc        1 MOL      0.082378
     19 N2          0.0260    5.7250    0.7840 n         1 MOL     -0.668366
     20 C7         -1.1870    5.4020    1.6540 c3        1 MOL     -0.031980
     21 C8         -2.3990    6.2510    1.2500 c         1 MOL      0.499468
     22 O5         -2.2820    7.4440    0.9910 o         1 MOL     -0.541627
     23 C9         -0.8650    5.5850    3.1660 c3        1 MOL      0.268856
     24 C10        -0.2600    7.0420    3.4660 c3        1 MOL      0.097975
     25 C11         0.0130    4.4600    3.7300 c3        1 MOL     -0.137300
     26 C12        -0.0360    7.2660    4.9220 c3        1 MOL     -0.148132
     27 H8          0.9030    5.6040    1.2770 hn        1 MOL      0.302943
     28 H9         -1.5540    4.3750    1.6320 h1        1 MOL      0.148784
     29 H10        -1.8390    5.4900    3.6320 hc        1 MOL     -0.033526
     30 H11        -1.1140    7.6870    3.2550 hc        1 MOL     -0.002291
     31 H12         0.6840    7.2050    2.9470 hc        1 MOL     -0.002291
     32 H13        -0.3040    3.4600    3.4390 hc        1 MOL      0.018832
     33 H14         1.0380    4.6140    3.3870 hc        1 MOL      0.018832
     34 H15         0.0090    4.3630    4.8080 hc        1 MOL      0.018832
     35 H16         0.7740    6.6600    5.3260 hc        1 MOL      0.006994
     36 H17         0.2390    8.3210    4.8940 hc        1 MOL      0.006994
     37 H18        -0.9560    7.0800    5.4920 hc        1 MOL      0.006994
     38 N3         -3.6280    5.7710    1.1090 n         1 MOL     -0.519728
     39 C13        -4.1100    4.4440    0.9100 c3        1 MOL      0.172097
     40 C14        -5.4420    4.6400    0.1040 c         1 MOL      0.397386
     41 O6         -6.4000    4.9370    0.7870 o         1 MOL     -0.493267
     42 C15        -4.3590    3.7440    2.1850 c3        1 MOL     -0.226900
     43 C16        -5.2050    2.4550    2.1180 c         1 MOL      0.775512
     44 O7         -5.0340    1.7060    1.1800 o         1 MOL     -0.661555
     45 O8         -5.9990    2.1910    3.0380 o         1 MOL     -0.661555
     46 H19        -4.2520    6.5290    1.3560 hn        1 MOL      0.325839
     47 H20        -3.4420    3.8160    0.3180 h1        1 MOL      0.050329
     48 H21        -4.8390    4.4900    2.8200 hc        1 MOL      0.019491
     49 H22        -3.4010    3.4440    2.6170 hc        1 MOL      0.019491
     50 N4         -5.4470    4.5170   -1.2160 n         1 MOL     -0.212079
     51 C17        -6.6400    4.8540   -2.0330 c3        1 MOL     -0.186037
     52 C18        -7.5170    3.7120   -2.2230 c         1 MOL      0.739247
     53 O9         -8.4560    3.7890   -3.0470 o         1 MOL     -0.633788
     54 H23        -4.5490    4.4470   -1.6650 hn        1 MOL      0.253968
     55 H24        -6.4180    5.1210   -3.0680 h1        1 MOL      0.092444
     56 H25        -7.2530    5.6640   -1.6410 h1        1 MOL      0.092444
     57 N5         -7.2320    2.5650   -1.5250 n         1 MOL     -0.594618
     58 C19        -7.8220    1.3030   -1.9650 c3        1 MOL      0.322125
     59 C20        -8.4100    0.5590   -0.8070 c         1 MOL      0.408383
     60 O10        -9.5570    0.1320   -0.9340 o         1 MOL     -0.586132
     61 C21        -6.8120    0.4430   -2.7380 c3        1 MOL     -0.411699
     62 C22        -5.4380    0.1480   -2.0180 c         1 MOL      0.781292
     63 O11        -4.4460    0.8560   -2.2160 o         1 MOL     -0.654375
     64 O12        -5.3700   -0.9140   -1.3160 o         1 MOL     -0.654375
     65 H26        -6.3600    2.5530   -1.0320 hn        1 MOL      0.195943
     66 H27        -8.6930    1.4930   -2.5870 h1        1 MOL      0.036954
     67 H28        -6.5750    1.1540   -3.5240 hc        1 MOL      0.083455
     68 H29        -7.2750   -0.5130   -3.0040 hc        1 MOL      0.083455
     69 N6         -7.7660    0.5060    0.3360 n         1 MOL     -0.227330
     70 C23        -8.2530   -0.2840    1.4190 c3        1 MOL     -0.236144
     71 C24        -8.0620   -1.7540    1.1770 c         1 MOL      0.489343
     72 O13        -8.5580   -2.4850    2.0160 o         1 MOL     -0.595395
     73 H30        -6.7840    0.7670    0.3490 hn        1 MOL      0.319419
     74 H31        -9.3230   -0.0610    1.4500 h1        1 MOL      0.131513
     75 H32        -7.8080   -0.0560    2.3820 h1        1 MOL      0.131513
     76 N7         -7.4430   -2.2390    0.0600 n         1 MOL     -0.008369
     77 C25        -7.2790   -3.6310   -0.4580 c3        1 MOL      0.023024
     78 C26        -6.6080   -4.4960    0.5900 c         1 MOL      0.506372
     79 O14        -6.8540   -5.7200    0.5650 o         1 MOL     -0.577376
     80 C27        -8.4340   -4.1960   -1.1760 c3        1 MOL      0.176124
     81 C28        -8.9840   -3.2030   -2.2960 c3        1 MOL     -0.203072
     82 C29        -9.8100   -3.8750   -3.4250 c         1 MOL      0.669151
     83 N8        -10.7280   -4.8010   -3.1010 n         1 MOL     -0.765608
     84 O15        -9.5950   -3.5960   -4.6270 o         1 MOL     -0.580417
     85 H33        -6.9080   -1.5410   -0.4340 hn        1 MOL     -0.002995
     86 H34        -6.4940   -3.4910   -1.2050 h1        1 MOL      0.072815
     87 H35        -9.2390   -4.5180   -0.5100 hc        1 MOL     -0.042931
     88 H36        -8.1210   -5.1200   -1.6690 hc        1 MOL     -0.042931
     89 H37        -8.0940   -2.6520   -2.6270 hc        1 MOL      0.050766
     90 H38        -9.6580   -2.4910   -1.8250 hc        1 MOL      0.050766
     91 H39       -10.8390   -5.2130   -2.1950 hn        1 MOL      0.327485
     92 H40       -11.3860   -5.1870   -3.7730 hn        1 MOL      0.327485
     93 N9         -5.6790   -3.9960    1.3740 n         1 MOL     -0.396627
     94 C30        -4.9040   -4.7410    2.4300 c3        1 MOL     -0.056149
     95 C31        -3.4570   -4.3640    2.4980 c         1 MOL      0.478417
     96 O16        -2.7130   -5.0680    3.2180 o         1 MOL     -0.590049
     97 C32        -5.5090   -4.5320    3.8020 c3        1 MOL      0.278654
     98 C33        -5.4990   -3.1240    4.3390 c3        1 MOL     -0.287447
     99 C34        -6.8600   -5.0760    3.9490 c3        1 MOL     -0.287447
    100 H41        -5.4000   -3.0430    1.1970 hn        1 MOL      0.248911
    101 H42        -4.9250   -5.7950    2.1870 h1        1 MOL      0.115553
    102 H43        -5.0520   -5.2200    4.5050 hc        1 MOL     -0.021536
    103 H44        -4.6760   -2.4920    3.9920 hc        1 MOL      0.063459
    104 H45        -6.3890   -2.5760    4.0150 hc        1 MOL      0.063459
    105 H46        -5.5590   -3.1140    5.4340 hc        1 MOL      0.063459
    106 H47        -7.0840   -5.0000    5.0050 hc        1 MOL      0.063459
    107 H48        -7.6160   -4.5670    3.3470 hc        1 MOL      0.063459
    108 H49        -6.9060   -6.1290    3.6730 hc        1 MOL      0.063459
    109 N10        -3.0030   -3.2860    1.9100 n         1 MOL     -0.398959
    110 C35        -1.6450   -2.8680    2.0590 c3        1 MOL      0.381472
    111 C36        -1.0740   -2.5680    0.6750 c         1 MOL      0.360930
    112 O17        -1.7590   -2.4510   -0.3470 o         1 MOL     -0.477676
    113 C37        -1.6510   -1.6680    3.0240 c3        1 MOL     -0.226202
    114 C38        -0.2120   -1.1860    3.2000 c         1 MOL      0.589117
    115 N11         0.1730   -0.0420    2.6900 n         1 MOL     -0.767914
    116 O18         0.5370   -1.9330    3.6640 o         1 MOL     -0.558273
    117 H50        -3.6160   -2.7570    1.3050 hn        1 MOL      0.241206
    118 H51        -1.0640   -3.6770    2.5040 h1        1 MOL      0.007215
    119 H52        -2.0270   -2.0010    3.9920 hc        1 MOL      0.083791
    120 H53        -2.3150   -0.8860    2.6770 hc        1 MOL      0.083791
    121 H54        -0.3760    0.5680    2.1120 hn        1 MOL      0.360717
    122 H55         1.1610    0.0990    2.8830 hn        1 MOL      0.360717
    123 N12         0.3120   -2.4490    0.5760 n         1 MOL     -0.374296
    124 C39         1.0890   -2.3870   -0.6760 c3        1 MOL      0.007308
    125 C40         2.5250   -2.9970   -0.3570 c         1 MOL      0.520030
    126 O19         3.0560   -2.8520    0.7220 o         1 MOL     -0.576276
    127 C41         1.0160   -0.9650   -1.2140 c3        1 MOL     -0.161629
    128 C42         2.2510   -0.5970   -2.0720 ca        1 MOL     -0.068755
    129 C43         3.4330   -0.2450   -1.4020 ca        1 MOL     -0.057904
    130 C44         2.1420   -0.4710   -3.4810 ca        1 MOL     -0.057904
    131 C45         4.5630    0.2510   -2.0730 ca        1 MOL     -0.230217
    132 C46         3.3520   -0.0810   -4.1670 ca        1 MOL     -0.230217
    133 C47         4.5880    0.1530   -3.4840 ca        1 MOL      0.299064
    134 O20         5.6910    0.4800   -4.2080 oh        1 MOL     -0.501578
    135 H56         0.7420   -2.6200    1.4710 hn        1 MOL      0.247485
    136 H57         0.5970   -3.0950   -1.3470 h1        1 MOL      0.089284
    137 H58         0.8940   -0.3060   -0.3520 hc        1 MOL      0.139592
    138 H59         0.0630   -0.8460   -1.7240 hc        1 MOL      0.139592
    139 H60         3.5410   -0.2890   -0.3210 ha        1 MOL      0.120919
    140 H61         1.1840   -0.6200   -3.9540 ha        1 MOL      0.120919
    141 H62         5.3920    0.5290   -1.4460 ha        1 MOL      0.126642
    142 H63         3.2800    0.0450   -5.2350 ha        1 MOL      0.126642
    143 H64         6.4730    0.7180   -3.7130 ho        1 MOL      0.365846
    144 N13         3.0920   -3.6270   -1.3870 n         1 MOL     -0.603628
    145 C48         4.3150   -4.2930   -1.2850 c3        1 MOL      0.661953
    146 C49         5.4700   -3.3710   -1.8630 c         1 MOL      0.301891
    147 O21         5.5640   -3.1000   -3.0470 o         1 MOL     -0.524447
    148 C50         4.3940   -5.6290   -2.0320 c3        1 MOL     -0.014889
    149 C51         3.5960   -6.7150   -1.4130 c3        1 MOL     -0.221633
    150 C52         3.7340   -7.9330   -2.3730 c         1 MOL      0.709695
    151 O22         4.0380   -9.0240   -1.8750 o         1 MOL     -0.646510
    152 O23         3.4040   -7.8910   -3.6040 o         1 MOL     -0.646510
    153 H65         2.6660   -3.6710   -2.3010 hn        1 MOL      0.309970
    154 H66         4.5170   -4.5120   -0.2360 h1        1 MOL     -0.046172
    155 H67         5.4520   -5.8830   -2.0120 hc        1 MOL     -0.008879
    156 H68         4.1020   -5.3760   -3.0550 hc        1 MOL     -0.008879
    157 H69         2.5540   -6.4080   -1.3330 hc        1 MOL      0.042858
    158 H70         4.0010   -6.9770   -0.4410 hc        1 MOL      0.042858
    159 N14         6.3970   -2.7750   -1.0610 n         1 MOL     -0.272934
    160 C53         6.3780   -2.7030    0.3860 c3        1 MOL     -0.653823
    161 C54         6.4230   -3.9550    1.1790 c         1 MOL      0.456704
    162 O24         7.1770   -4.8300    0.7690 o         1 MOL     -0.485443
    163 C55         7.4670   -1.7400    0.9750 c3        1 MOL      0.420935
    164 C56         7.4810   -0.3560    0.2930 c3        1 MOL      0.487127
    165 C57         8.7320    0.3980    0.5740 c         1 MOL      0.342484
    166 O25         9.1940    1.1770   -0.3090 o         1 MOL     -0.713327
    167 O26         9.3320    0.3870    1.6540 o         1 MOL     -0.713327
    168 H71         6.9840   -2.1100   -1.5360 hn        1 MOL      0.302443
    169 H72         5.4480   -2.1800    0.6290 h1        1 MOL      0.203531
    170 H73         8.4740   -2.1610    0.8850 hc        1 MOL     -0.054721
    171 H74         7.2360   -1.4780    2.0140 hc        1 MOL     -0.054721
    172 H75         6.6080    0.2530    0.5120 hc        1 MOL     -0.114363
    173 H76         7.4530   -0.4290   -0.7950 hc        1 MOL     -0.114363
    174 N15         5.9420   -3.9280    2.4320 n         1 MOL     -0.178267
    175 C58         6.2480   -4.7670    3.6530 c3        1 MOL     -0.549082
    176 H77         6.3330   -5.8140    3.3620 h1        1 MOL      0.191415
    177 H78         7.1870   -4.4350    4.0960 h1        1 MOL      0.191415
    178 H79         5.4440   -4.6580    4.3810 h1        1 MOL      0.191415
    179 H80         5.2920   -3.1790    2.6220 hn        1 MOL      0.271505
    180 Ca1        11.4700    1.3820    0.7640 Ca        1 MOL      1.752572
    181 O27        12.8480    3.6810    0.3530 oh        1 MOL     -0.972926
    182 H81        13.5920    3.9530    0.8900 ho        1 MOL      0.411794
    183 H82        13.2250    3.4920   -0.5080 ho        1 MOL      0.411794
    184 O28        14.0420    0.5810    0.7650 oh        1 MOL     -0.972926
    185 H83        14.4290   -0.3010    0.7480 ho        1 MOL      0.411794
    186 H84        14.7230    1.1400    0.3890 ho        1 MOL      0.411794
    187 O29        12.8310    1.7240   -1.7950 oh        1 MOL     -0.972926
    188 H85        12.7150    0.8410   -2.1450 ho        1 MOL      0.411794
    189 H86        13.0750    2.2490   -2.5650 ho        1 MOL      0.411794
    190 O30        11.4650   -0.9570   -0.5370 oh        1 MOL     -0.972926
    191 H87        12.0310   -1.7300   -0.4670 ho        1 MOL      0.411794
    192 H88        10.7920   -1.2090   -1.1700 ho        1 MOL      0.411794
    193 O31        12.0000   -0.5270    2.4930 oh        1 MOL     -0.972926
    194 H89        12.6520   -1.1170    2.1070 ho        1 MOL      0.411794
    195 H90        11.5510   -1.0520    3.1500 ho        1 MOL      0.411794
@<TRIPOS>BOND
     1    1    2 1   
     2    1    4 1   
     3    1    5 1   
     4    1    6 1   
     5    2    3 2   
     6    2    7 1   
     7    7    8 1   
     8    7   15 1   
     9    8    9 1   
    10    8   11 1   
    11    8   16 1   
    12    9   10 2   
    13    9   19 1   
    14   11   12 1   
    15   11   17 1   
    16   11   18 1   
    17   12   13 1   
    18   12   14 1   
    19   19   20 1   
    20   19   27 1   
    21   20   21 1   
    22   20   23 1   
    23   20   28 1   
    24   21   22 2   
    25   21   38 1   
    26   23   24 1   
    27   23   25 1   
    28   23   29 1   
    29   24   26 1   
    30   24   30 1   
    31   24   31 1   
    32   25   32 1   
    33   25   33 1   
    34   25   34 1   
    35   26   35 1   
    36   26   36 1   
    37   26   37 1   
    38   38   39 1   
    39   38   46 1   
    40   39   40 1   
    41   39   42 1   
    42   39   47 1   
    43   40   41 2   
    44   40   50 1   
    45   42   43 1   
    46   42   48 1   
    47   42   49 1   
    48   43   44 1   
    49   43   45 1   
    50   50   51 1   
    51   50   54 1   
    52   51   52 1   
    53   51   55 1   
    54   51   56 1   
    55   52   53 2   
    56   52   57 1   
    57   57   58 1   
    58   57   65 1   
    59   58   59 1   
    60   58   61 1   
    61   58   66 1   
    62   59   60 2   
    63   59   69 1   
    64   61   62 1   
    65   61   67 1   
    66   61   68 1   
    67   62   63 1   
    68   62   64 1   
    69   69   70 1   
    70   69   73 1   
    71   70   71 1   
    72   70   74 1   
    73   70   75 1   
    74   71   72 2   
    75   71   76 1   
    76   76   77 1   
    77   76   85 1   
    78   77   78 1   
    79   77   80 1   
    80   77   86 1   
    81   78   79 2   
    82   78   93 1   
    83   80   81 1   
    84   80   87 1   
    85   80   88 1   
    86   81   82 1   
    87   81   89 1   
    88   81   90 1   
    89   82   83 1   
    90   82   84 2   
    91   83   91 1   
    92   83   92 1   
    93   93   94 1   
    94   93  100 1   
    95   94   95 1   
    96   94   97 1   
    97   94  101 1   
    98   95   96 2   
    99   95  109 1   
   100   97   98 1   
   101   97   99 1   
   102   97  102 1   
   103   98  103 1   
   104   98  104 1   
   105   98  105 1   
   106   99  106 1   
   107   99  107 1   
   108   99  108 1   
   109  109  110 1   
   110  109  117 1   
   111  110  111 1   
   112  110  113 1   
   113  110  118 1   
   114  111  112 2   
   115  111  123 1   
   116  113  114 1   
   117  113  119 1   
   118  113  120 1   
   119  114  115 1   
   120  114  116 2   
   121  115  121 1   
   122  115  122 1   
   123  123  124 1   
   124  123  135 1   
   125  124  125 1   
   126  124  127 1   
   127  124  136 1   
   128  125  126 2   
   129  125  144 1   
   130  127  128 1   
   131  127  137 1   
   132  127  138 1   
   133  128  129 ar  
   134  128  130 ar  
   135  129  131 ar  
   136  129  139 1   
   137  130  132 ar  
   138  130  140 1   
   139  131  133 ar  
   140  131  141 1   
   141  132  133 ar  
   142  132  142 1   
   143  133  134 1   
   144  134  143 1   
   145  144  145 1   
   146  144  153 1   
   147  145  146 1   
   148  145  148 1   
   149  145  154 1   
   150  146  147 2   
   151  146  159 1   
   152  148  149 1   
   153  148  155 1   
   154  148  156 1   
   155  149  150 1   
   156  149  157 1   
   157  149  158 1   
   158  150  151 1   
   159  150  152 1   
   160  159  160 1   
   161  159  168 1   
   162  160  161 1   
   163  160  163 1   
   164  160  169 1   
   165  161  162 2   
   166  161  174 1   
   167  163  164 1   
   168  163  170 1   
   169  163  171 1   
   170  164  165 1   
   171  164  172 1   
   172  164  173 1   
   173  165  166 1   
   174  165  167 1   
   175  174  175 1   
   176  174  179 1   
   177  175  176 1   
   178  175  177 1   
   179  175  178 1   
   180  181  182 1   
   181  181  183 1   
   182  184  185 1   
   183  184  186 1   
   184  187  188 1   
   185  187  189 1   
   186  190  191 1   
   187  190  192 1   
   188  193  194 1   
   189  193  195 1   
@<TRIPOS>SUBSTRUCTURE
     1 MOL         1 TEMP              0 ****  ****    0 ROOT
