@<TRIPOS>MOLECULE
MOL
  175   173     1     0     0
SMALL
resp


@<TRIPOS>ATOM
      1 C1         -6.4730    7.9920    2.1770 c3        1 MOL     -0.352481
      2 C2         -7.3340    7.1140    1.1750 c         1 MOL      0.634800
      3 O1         -7.4530    7.5040    0.0010 o         1 MOL     -0.543582
      4 H1         -5.7580    7.3550    2.6970 hc        1 MOL      0.086421
      5 H2         -5.9360    8.7600    1.6200 hc        1 MOL      0.086421
      6 H3         -7.1330    8.4650    2.9050 hc        1 MOL      0.086421
      7 N1         -7.9740    5.9580    1.5900 n         1 MOL     -0.487108
      8 C3         -8.8930    5.2420    0.6510 c3        1 MOL      0.097624
      9 C4         -8.1350    4.4010   -0.4290 c         1 MOL      0.459703
     10 O2         -8.5520    4.1400   -1.5710 o         1 MOL     -0.512909
     11 C5         -9.8850    4.3830    1.4040 c3        1 MOL     -0.245344
     12 C6        -10.9140    3.8570    0.4240 c         1 MOL      0.707376
     13 O3        -11.0060    2.6270    0.2050 o         1 MOL     -0.715470
     14 O4        -11.7330    4.6490   -0.1020 o         1 MOL     -0.715470
     15 H4         -7.8180    5.5360    2.4910 hn        1 MOL      0.281151
     16 H5         -9.4800    6.0300    0.1810 h1        1 MOL      0.075818
     17 H6        -10.2850    5.0250    2.1850 hc        1 MOL      0.029966
     18 H7         -9.4450    3.5180    1.8860 hc        1 MOL      0.029966
     19 N2         -6.9390    3.9850   -0.0840 n         1 MOL     -0.372900
     20 C7         -5.9760    3.2430   -0.9130 c3        1 MOL      0.294603
     21 C8         -5.0260    2.4680   -0.0130 c         1 MOL      0.335416
     22 O5         -4.4380    3.1000    0.8750 o         1 MOL     -0.527086
     23 C9         -5.2260    4.0880   -1.8430 c3        1 MOL     -0.164232
     24 H8         -6.6570    4.3320    0.8170 hn        1 MOL      0.188660
     25 H9         -6.6550    2.5890   -1.4670 h1        1 MOL      0.001401
     26 H10        -4.4210    3.6050   -2.3990 hc        1 MOL      0.049595
     27 H11        -5.8620    4.5170   -2.6190 hc        1 MOL      0.049595
     28 H12        -4.8270    4.9260   -1.2830 hc        1 MOL      0.049595
     29 N3         -4.5890    1.2830   -0.3330 n         1 MOL     -0.306432
     30 C10        -4.9710    0.3490   -1.4510 c3        1 MOL      0.016980
     31 C11        -5.4530   -0.9820   -0.8620 c         1 MOL      0.436288
     32 O6         -4.7460   -1.4630    0.0480 o         1 MOL     -0.522986
     33 C12        -3.9450    0.2260   -2.6080 c3        1 MOL     -0.251680
     34 C13        -2.6210   -0.3200   -2.1150 c         1 MOL      0.827863
     35 O7         -2.3420   -1.4990   -2.4250 o         1 MOL     -0.748058
     36 O8         -1.8230    0.3010   -1.3900 o         1 MOL     -0.748058
     37 H13        -3.8590    0.9430    0.2850 hn        1 MOL      0.291615
     38 H14        -5.8710    0.7720   -1.8950 h1        1 MOL      0.061368
     39 H15        -3.8570    1.2480   -2.9730 hc        1 MOL      0.061411
     40 H16        -4.4550   -0.4770   -3.2640 hc        1 MOL      0.061411
     41 N4         -6.4400   -1.6160   -1.5060 n         1 MOL     -0.377307
     42 C14        -6.9490   -2.9630   -1.1340 c3        1 MOL      0.084594
     43 C15        -6.8200   -3.9580   -2.3060 c         1 MOL      0.511483
     44 O9         -7.7490   -4.1240   -3.0820 o         1 MOL     -0.519932
     45 H17        -6.9820   -1.1780   -2.2370 hn        1 MOL      0.316869
     46 H18        -8.0290   -2.9310   -0.9870 h1        1 MOL      0.037893
     47 H19        -6.4270   -3.2550   -0.2230 h1        1 MOL      0.037893
     48 N5         -5.5890   -4.5670   -2.4780 n         1 MOL     -0.542889
     49 C16        -4.3580   -4.3680   -1.7470 c3        1 MOL      0.032791
     50 C17        -4.4780   -5.1660   -0.4350 c         1 MOL      0.514900
     51 O10        -4.9440   -6.2760   -0.3720 o         1 MOL     -0.565934
     52 C18        -3.1560   -4.7920   -2.6230 c3        1 MOL     -0.104605
     53 C19        -1.8350   -4.8610   -1.7800 c         1 MOL      0.579055
     54 N6         -1.1360   -5.9840   -1.7990 n         1 MOL     -0.707507
     55 O11        -1.5160   -3.9220   -1.0670 o         1 MOL     -0.529382
     56 H20        -5.5460   -5.2750   -3.1930 hn        1 MOL      0.315955
     57 H21        -4.1600   -3.3060   -1.5490 h1        1 MOL      0.164573
     58 H22        -3.1030   -4.0940   -3.4590 hc        1 MOL      0.045516
     59 H23        -3.1700   -5.8110   -3.0110 hc        1 MOL      0.045516
     60 H24        -1.4520   -6.8250   -2.2760 hn        1 MOL      0.345161
     61 H25        -0.4320   -6.1590   -1.0990 hn        1 MOL      0.345161
     62 N7         -3.7980   -4.6790    0.5560 n         1 MOL     -0.241498
     63 C20        -3.6670   -5.1640    1.9810 c3        1 MOL     -0.059841
     64 C21        -2.2190   -5.4460    2.4160 c         1 MOL      0.469333
     65 O12        -2.0060   -6.1750    3.4110 o         1 MOL     -0.574963
     66 H26        -3.4030   -3.7590    0.4480 hn        1 MOL      0.228723
     67 H27        -4.2490   -6.0810    1.9950 h1        1 MOL      0.075426
     68 H28        -4.1790   -4.4970    2.6800 h1        1 MOL      0.075426
     69 N8         -1.2430   -4.7880    1.7860 n         1 MOL     -0.129788
     70 C22         0.1820   -4.8130    2.2350 c3        1 MOL     -0.056037
     71 C23         0.8670   -3.4740    2.2030 c         1 MOL      0.380083
     72 O13         0.5500   -2.6350    1.3990 o         1 MOL     -0.263207
     73 C24         1.0920   -5.8000    1.5480 c3        1 MOL      0.408121
     74 C25         0.8140   -7.2220    1.8800 c3        1 MOL     -0.280823
     75 O14         0.9240   -5.6570    0.1760 oh        1 MOL     -0.532671
     76 H29        -1.4560   -4.3870    0.8750 hn        1 MOL      0.068831
     77 H30         0.1820   -5.1270    3.2860 h1        1 MOL      0.062519
     78 H31         2.0760   -5.6730    1.9900 h1        1 MOL      0.008006
     79 H32         1.4660   -4.8790   -0.0040 ho        1 MOL      0.287635
     80 H33        -0.1990   -7.5990    1.7210 hc        1 MOL      0.060396
     81 H34         1.4320   -7.8400    1.2200 hc        1 MOL      0.060396
     82 H35         1.0780   -7.4230    2.9120 hc        1 MOL      0.060396
     83 N9          1.9110   -3.3330    3.0840 n         1 MOL     -0.550787
     84 C26         2.9140   -2.3480    2.8950 c3        1 MOL     -0.019451
     85 C27         3.8340   -2.8110    1.7980 c         1 MOL      0.203588
     86 O15         4.3450   -3.9620    1.8430 o         1 MOL     -0.537579
     87 C28         3.7870   -2.1120    4.1730 c3        1 MOL      0.250449
     88 C29         4.6090   -0.8960    3.9480 c3        1 MOL      0.106320
     89 C30         2.8110   -1.9630    5.3440 c3        1 MOL     -0.392830
     90 C31         5.2880   -0.2420    5.1030 c3        1 MOL     -0.369932
     91 H36         2.0740   -3.9470    3.8710 hn        1 MOL      0.360219
     92 H37         2.5120   -1.3620    2.6470 h1        1 MOL      0.131101
     93 H38         4.3740   -3.0270    4.2750 hc        1 MOL     -0.018251
     94 H39         4.0260   -0.0980    3.4920 hc        1 MOL      0.009095
     95 H40         5.4550   -1.1440    3.3020 hc        1 MOL      0.009095
     96 H41         2.3590   -2.9500    5.4880 hc        1 MOL      0.094253
     97 H42         3.3290   -1.6880    6.2640 hc        1 MOL      0.094253
     98 H43         2.0450   -1.1940    5.2130 hc        1 MOL      0.094253
     99 H44         5.8690   -0.8520    5.7920 hc        1 MOL      0.080071
    100 H45         6.0370    0.4940    4.7880 hc        1 MOL      0.080071
    101 H46         4.5520    0.3290    5.6720 hc        1 MOL      0.080071
    102 N10         4.0710   -2.1820    0.6620 n         1 MOL     -0.031794
    103 C32         4.9430   -2.6570   -0.4230 c3        1 MOL      0.012876
    104 C33         5.7330   -1.5480   -1.1810 c         1 MOL      0.627722
    105 O16         6.0140   -1.7910   -2.3270 o         1 MOL     -0.539364
    106 C34         4.1600   -3.7430   -1.2980 c3        1 MOL     -0.156097
    107 C35         2.9290   -3.2400   -1.8950 c         1 MOL      0.735350
    108 O17         2.8870   -2.9080   -3.0850 o         1 MOL     -0.692843
    109 O18         1.9140   -3.1680   -1.1470 o         1 MOL     -0.692843
    110 H47         3.3890   -1.4510    0.5190 hn        1 MOL      0.091105
    111 H48         5.8160   -3.0510    0.1060 h1        1 MOL      0.041781
    112 H49         3.9720   -4.6550   -0.7190 hc        1 MOL      0.049640
    113 H50         4.7970   -4.1860   -2.0680 hc        1 MOL      0.049640
    114 N11         6.0670   -0.3790   -0.5470 n         1 MOL     -0.678882
    115 C36         6.9000    0.7180   -1.1170 c3        1 MOL      0.586850
    116 C37         6.2550    2.0650   -0.5990 c         1 MOL      0.351471
    117 O19         6.0480    2.0640    0.6520 o         1 MOL     -0.537758
    118 C38         8.3170    0.7110   -0.5500 c3        1 MOL     -0.369667
    119 C39         9.3330    1.5380   -1.3160 ca        1 MOL      0.145321
    120 C40         9.6160    2.8280   -0.8410 ca        1 MOL     -0.187824
    121 C41         9.7690    1.1190   -2.5630 ca        1 MOL     -0.187824
    122 C42        10.3630    3.7440   -1.5890 ca        1 MOL     -0.102301
    123 C43        10.5480    2.0720   -3.3290 ca        1 MOL     -0.102301
    124 C44        10.9090    3.3330   -2.8250 ca        1 MOL     -0.132328
    125 H51         5.6620   -0.1940    0.3640 hn        1 MOL      0.263034
    126 H52         6.9360    0.6390   -2.1990 h1        1 MOL     -0.059624
    127 H53         8.6370   -0.3270   -0.6570 hc        1 MOL      0.110773
    128 H54         8.3100    1.0380    0.4880 hc        1 MOL      0.110773
    129 H55         9.2190    3.1490    0.1110 ha        1 MOL      0.134171
    130 H56         9.4520    0.1520   -2.9360 ha        1 MOL      0.134171
    131 H57        10.4630    4.7500   -1.1960 ha        1 MOL      0.104743
    132 H58        10.8200    1.8750   -4.3470 ha        1 MOL      0.104743
    133 H59        11.6150    3.9250   -3.3790 ha        1 MOL      0.108206
    134 N12         6.1020    3.0720   -1.5030 n         1 MOL     -0.248253
    135 C45         6.1520    4.4620   -1.0150 c3        1 MOL      0.240789
    136 C46         4.9540    4.8780   -0.0710 c         1 MOL      0.169545
    137 O20         4.8230    6.0610    0.3700 o         1 MOL     -0.513502
    138 C47         5.9540    5.3830   -2.2330 c3        1 MOL     -0.193750
    139 C48         6.5170    4.5350   -3.3340 c3        1 MOL      0.018239
    140 C49         6.1770    3.0990   -2.9690 c3        1 MOL     -0.266581
    141 H60         7.1210    4.7260   -0.5790 h1        1 MOL      0.042229
    142 H61         4.8790    5.5220   -2.3310 hc        1 MOL      0.097273
    143 H62         6.5040    6.3310   -2.1700 hc        1 MOL      0.097273
    144 H63         6.0520    4.7410   -4.2950 hc        1 MOL      0.035702
    145 H64         7.6040    4.6020   -3.3320 hc        1 MOL      0.035702
    146 H65         5.1890    2.8650   -3.3850 h1        1 MOL      0.146861
    147 H66         6.9700    2.4670   -3.3750 h1        1 MOL      0.146861
    148 N13         3.9310    4.0490    0.1440 n         1 MOL     -0.108468
    149 C50         2.6480    4.3440    0.7610 c3        1 MOL     -0.183886
    150 C51         2.8970    4.5390    2.3530 c         1 MOL      0.387336
    151 O21         1.8800    4.9230    3.0840 o         1 MOL     -0.509692
    152 C52         1.7220    3.0660    0.6160 c3        1 MOL     -0.033091
    153 C53         2.3260    1.8170    1.2260 c3        1 MOL     -0.108141
    154 C54         1.5470    0.6520    0.8160 c         1 MOL      0.541660
    155 O22         2.1150   -0.3020    0.1710 o         1 MOL     -0.676979
    156 O23         0.3790    0.4510    1.2140 o         1 MOL     -0.676979
    157 H67         4.0680    3.0920   -0.1290 hn        1 MOL      0.220003
    158 H68         2.1550    5.2160    0.3370 h1        1 MOL      0.178137
    159 H69         1.5760    2.9240   -0.4520 hc        1 MOL      0.060989
    160 H70         0.7400    3.3150    1.0300 hc        1 MOL      0.060989
    161 H71         2.2950    1.8800    2.3110 hc        1 MOL      0.068164
    162 H72         3.3670    1.6640    0.9530 hc        1 MOL      0.068164
    163 N14         4.1460    4.5010    2.8640 n         1 MOL     -0.125250
    164 C55         4.4640    4.7560    4.2060 c3        1 MOL     -0.256950
    165 H73         5.4340    4.3150    4.4380 h1        1 MOL      0.100300
    166 H74         4.5060    5.8320    4.3720 h1        1 MOL      0.100300
    167 H75         3.7030    4.3170    4.8500 h1        1 MOL      0.100300
    168 H76         4.9140    4.2890    2.2380 hn        1 MOL      0.235690
    169 Ca1        -0.0600   -1.4850   -0.7780 Ca        1 MOL      1.736014
    170 O24        -2.2720   -1.7940    1.1920 oh        1 MOL     -1.010891
    171 H77        -2.1070   -1.3070    2.0020 ho        1 MOL      0.453979
    172 H78        -3.1890   -1.6100    0.9810 ho        1 MOL      0.453979
    173 O25         0.7900   -1.3740   -3.3320 oh        1 MOL     -1.010891
    174 H79         0.8050   -0.8710   -4.1500 ho        1 MOL      0.453979
    175 H80         1.4560   -2.0450   -3.4480 ho        1 MOL      0.453979
@<TRIPOS>BOND
     1    1    2 1   
     2    1    4 1   
     3    1    5 1   
     4    1    6 1   
     5    2    3 2   
     6    2    7 1   
     7    7    8 1   
     8    7   15 1   
     9    8    9 1   
    10    8   11 1   
    11    8   16 1   
    12    9   10 2   
    13    9   19 1   
    14   11   12 1   
    15   11   17 1   
    16   11   18 1   
    17   12   13 1   
    18   12   14 1   
    19   19   20 1   
    20   19   24 1   
    21   20   21 1   
    22   20   23 1   
    23   20   25 1   
    24   21   22 2   
    25   21   29 1   
    26   23   26 1   
    27   23   27 1   
    28   23   28 1   
    29   29   30 1   
    30   29   37 1   
    31   30   31 1   
    32   30   33 1   
    33   30   38 1   
    34   31   32 2   
    35   31   41 1   
    36   33   34 1   
    37   33   39 1   
    38   33   40 1   
    39   34   35 1   
    40   34   36 1   
    41   41   42 1   
    42   41   45 1   
    43   42   43 1   
    44   42   46 1   
    45   42   47 1   
    46   43   44 2   
    47   43   48 1   
    48   48   49 1   
    49   48   56 1   
    50   49   50 1   
    51   49   52 1   
    52   49   57 1   
    53   50   51 2   
    54   50   62 1   
    55   52   53 1   
    56   52   58 1   
    57   52   59 1   
    58   53   54 1   
    59   53   55 2   
    60   54   60 1   
    61   54   61 1   
    62   62   63 1   
    63   62   66 1   
    64   63   64 1   
    65   63   67 1   
    66   63   68 1   
    67   64   65 2   
    68   64   69 1   
    69   69   70 1   
    70   69   76 1   
    71   70   71 1   
    72   70   73 1   
    73   70   77 1   
    74   71   72 2   
    75   71   83 1   
    76   73   74 1   
    77   73   75 1   
    78   73   78 1   
    79   74   80 1   
    80   74   81 1   
    81   74   82 1   
    82   75   79 1   
    83   83   84 1   
    84   83   91 1   
    85   84   85 1   
    86   84   87 1   
    87   84   92 1   
    88   85   86 2   
    89   85  102 1   
    90   87   88 1   
    91   87   89 1   
    92   87   93 1   
    93   88   90 1   
    94   88   94 1   
    95   88   95 1   
    96   89   96 1   
    97   89   97 1   
    98   89   98 1   
    99   90   99 1   
   100   90  100 1   
   101   90  101 1   
   102  102  103 1   
   103  102  110 1   
   104  103  104 1   
   105  103  106 1   
   106  103  111 1   
   107  104  105 2   
   108  104  114 1   
   109  106  107 1   
   110  106  112 1   
   111  106  113 1   
   112  107  108 1   
   113  107  109 1   
   114  114  115 1   
   115  114  125 1   
   116  115  116 1   
   117  115  118 1   
   118  115  126 1   
   119  116  117 2   
   120  116  134 1   
   121  118  119 1   
   122  118  127 1   
   123  118  128 1   
   124  119  120 ar  
   125  119  121 ar  
   126  120  122 ar  
   127  120  129 1   
   128  121  123 ar  
   129  121  130 1   
   130  122  124 ar  
   131  122  131 1   
   132  123  124 ar  
   133  123  132 1   
   134  124  133 1   
   135  134  135 1   
   136  134  140 1   
   137  135  136 1   
   138  135  138 1   
   139  135  141 1   
   140  136  137 2   
   141  136  148 1   
   142  138  139 1   
   143  138  142 1   
   144  138  143 1   
   145  139  140 1   
   146  139  144 1   
   147  139  145 1   
   148  140  146 1   
   149  140  147 1   
   150  148  149 1   
   151  148  157 1   
   152  149  150 1   
   153  149  152 1   
   154  149  158 1   
   155  150  151 2   
   156  150  163 1   
   157  152  153 1   
   158  152  159 1   
   159  152  160 1   
   160  153  154 1   
   161  153  161 1   
   162  153  162 1   
   163  154  155 1   
   164  154  156 1   
   165  163  164 1   
   166  163  168 1   
   167  164  165 1   
   168  164  166 1   
   169  164  167 1   
   170  170  171 1   
   171  170  172 1   
   172  173  174 1   
   173  173  175 1   
@<TRIPOS>SUBSTRUCTURE
     1 MOL         1 TEMP              0 ****  ****    0 ROOT
