@<TRIPOS>MOLECULE
MOL
  181   177     1     0     0
SMALL
resp


@<TRIPOS>ATOM
      1 C1          2.0530   -1.3560    5.1170 c3        1 MOL     -0.286676
      2 C2          3.1940   -0.9250    4.1310 c         1 MOL      0.620266
      3 O1          3.0290   -0.1280    3.2310 o         1 MOL     -0.558999
      4 H1          2.2290   -2.3770    5.4520 hc        1 MOL      0.069138
      5 H2          2.0450   -0.6880    5.9780 hc        1 MOL      0.069138
      6 H3          1.0910   -1.3030    4.6060 hc        1 MOL      0.069138
      7 N1          4.3750   -1.4220    4.3810 n         1 MOL     -0.446003
      8 C3          5.5400   -1.2540    3.5640 c3        1 MOL      0.199679
      9 C4          5.4910   -1.8880    2.1640 c         1 MOL      0.553984
     10 O2          6.3790   -1.6190    1.3470 o         1 MOL     -0.437822
     11 C5          6.7830   -1.5940    4.4210 c3        1 MOL     -0.252411
     12 C6          8.2340   -1.2640    3.9090 c         1 MOL      0.759007
     13 O3          9.1160   -2.0870    4.0140 o         1 MOL     -0.705250
     14 O4          8.4270   -0.1050    3.4400 o         1 MOL     -0.705250
     15 H4          4.3870   -2.1070    5.1270 hn        1 MOL      0.235815
     16 H5          5.7150   -0.2020    3.3270 h1        1 MOL      0.035652
     17 H6          6.7460   -2.6860    4.4830 hc        1 MOL      0.008092
     18 H7          6.6150   -1.0990    5.3750 hc        1 MOL      0.008092
     19 N2          4.5850   -2.8350    1.9080 n         1 MOL     -0.532775
     20 C7          4.5120   -3.6930    0.6980 c3        1 MOL      0.221061
     21 C8          4.3450   -2.9120   -0.6540 c         1 MOL      0.765258
     22 O5          3.2550   -2.6560   -1.1060 o         1 MOL     -0.750234
     23 C9          5.7190   -4.6520    0.6500 c3        1 MOL     -0.650462
     24 H8          4.0450   -3.0650    2.7300 hn        1 MOL      0.283801
     25 H9          3.5650   -4.2320    0.7770 h1        1 MOL      0.027898
     26 H10         5.7680   -5.2790    1.5420 hc        1 MOL      0.168258
     27 H11         5.7210   -5.2390   -0.2680 hc        1 MOL      0.168258
     28 H12         6.6880   -4.1420    0.6900 hc        1 MOL      0.168258
     29 N3          5.5140   -2.5710   -1.2670 n         1 MOL     -0.481850
     30 C10         5.5650   -1.7900   -2.4940 c3        1 MOL      0.543341
     31 C11         5.9610   -0.3470   -2.2310 c         1 MOL      0.351619
     32 O6          6.3680    0.3150   -3.1630 o         1 MOL     -0.562896
     33 C12         6.5020   -2.4690   -3.5150 c3        1 MOL     -0.518354
     34 C13         7.8630   -2.8610   -2.9460 c         1 MOL      0.846421
     35 O7          8.3520   -2.3100   -1.9260 o         1 MOL     -0.748227
     36 O8          8.5390   -3.7690   -3.6090 o         1 MOL     -0.748227
     37 H13         6.3640   -2.7070   -0.7410 hn        1 MOL      0.239264
     38 H14         4.5220   -1.6570   -2.8000 h1        1 MOL     -0.095265
     39 H15         6.7810   -1.8100   -4.3390 hc        1 MOL      0.062725
     40 H16         6.0480   -3.3760   -3.9180 hc        1 MOL      0.062725
     41 N4          6.0470    0.1560   -0.9660 n         1 MOL      0.090524
     42 C14         6.2760    1.5130   -0.5450 c3        1 MOL     -0.108560
     43 C15         5.1500    2.4880   -0.9110 c         1 MOL      0.551422
     44 O9          5.4530    3.6800   -1.1290 o         1 MOL     -0.565986
     45 H17         5.8060   -0.5200   -0.2480 hn        1 MOL     -0.042059
     46 H18         7.2390    1.8860   -0.8920 h1        1 MOL      0.070520
     47 H19         6.3180    1.4460    0.5370 h1        1 MOL      0.070520
     48 N5          3.9230    2.0790   -1.1140 n         1 MOL     -0.249463
     49 C16         2.9170    2.7770   -1.8680 c3        1 MOL     -0.177814
     50 C17         2.5710    4.1780   -1.3460 c         1 MOL      0.508419
     51 O10         2.5660    4.4230   -0.1290 o         1 MOL     -0.470674
     52 C18         1.6480    1.9600   -2.1320 c3        1 MOL     -0.218580
     53 C19         1.9790    0.7090   -2.9410 c         1 MOL      0.427084
     54 N6          2.2960    0.9200   -4.1850 n         1 MOL     -0.742816
     55 O11         1.8120   -0.4750   -2.5870 o         1 MOL     -0.345386
     56 H20         3.7450    1.1510   -0.7790 hn        1 MOL      0.225669
     57 H21         3.3700    2.9800   -2.8360 h1        1 MOL      0.068777
     58 H22         0.9750    2.5790   -2.7180 hc        1 MOL      0.139829
     59 H23         1.1550    1.6330   -1.2220 hc        1 MOL      0.139829
     60 H24         2.4750    1.8750   -4.4630 hn        1 MOL      0.364174
     61 H25         2.2790    0.1220   -4.7930 hn        1 MOL      0.364174
     62 N7          2.5490    5.1890   -2.2520 n         1 MOL     -0.274844
     63 C20         2.2930    6.5490   -1.7390 c3        1 MOL     -0.373201
     64 C21         0.7980    6.8610   -1.6910 c         1 MOL      0.718187
     65 O12         0.0360    6.2960   -2.4030 o         1 MOL     -0.561723
     66 H26         2.4980    4.9810   -3.2430 hn        1 MOL      0.268460
     67 H27         2.5900    7.2380   -2.5280 h1        1 MOL      0.152899
     68 H28         2.7330    6.7200   -0.7640 h1        1 MOL      0.152899
     69 N8          0.3300    7.6250   -0.7300 n         1 MOL     -0.549703
     70 C22        -1.0850    7.9280   -0.5360 c3        1 MOL     -0.116883
     71 C23        -1.8570    6.8290    0.2250 c         1 MOL      0.438164
     72 O13        -3.0890    6.9530    0.2460 o         1 MOL     -0.569051
     73 C24        -1.2650    9.2110    0.2900 c3        1 MOL      0.438837
     74 C25        -0.8360    9.2780    1.7400 c3        1 MOL     -0.333851
     75 O14        -0.5160   10.2120   -0.3400 oh        1 MOL     -0.641138
     76 H29         1.0280    8.1130   -0.1960 hn        1 MOL      0.262953
     77 H30        -1.5230    8.0820   -1.5140 h1        1 MOL      0.151162
     78 H31        -2.3300    9.4530    0.2160 h1        1 MOL      0.030874
     79 H32         0.3880   10.1150   -0.0360 ho        1 MOL      0.380555
     80 H33        -0.8350   10.2800    2.1620 hc        1 MOL      0.079448
     81 H34        -1.4000    8.6380    2.4170 hc        1 MOL      0.079448
     82 H35         0.2180    8.9930    1.7400 hc        1 MOL      0.079448
     83 N9         -1.1830    5.8280    0.7670 n         1 MOL     -0.033479
     84 C26        -1.7680    4.6060    1.2770 c3        1 MOL     -0.058119
     85 C27        -1.6040    3.3840    0.3480 c         1 MOL      0.444608
     86 O15        -0.6550    3.4110   -0.4750 o         1 MOL     -0.475929
     87 C28        -1.2410    4.2670    2.7160 c3        1 MOL      0.172844
     88 C29         0.2560    3.7850    2.5920 c3        1 MOL     -0.064652
     89 C30        -1.4240    5.4430    3.6360 c3        1 MOL     -0.238795
     90 C31         0.7070    3.4870    3.9800 c3        1 MOL     -0.186265
     91 H36        -0.1790    5.7520    0.6720 hn        1 MOL      0.109461
     92 H37        -2.8460    4.8080    1.2680 h1        1 MOL      0.024563
     93 H38        -1.7270    3.3510    3.0460 hc        1 MOL     -0.021088
     94 H39         0.9010    4.5720    2.2000 hc        1 MOL      0.088365
     95 H40         0.2490    2.8560    2.0230 hc        1 MOL      0.088365
     96 H41        -1.3150    5.1030    4.6620 hc        1 MOL      0.046330
     97 H42        -0.6290    6.1490    3.4260 hc        1 MOL      0.046330
     98 H43        -2.4180    5.8580    3.5160 hc        1 MOL      0.046330
     99 H44         1.4180    2.6570    4.0020 hc        1 MOL      0.045860
    100 H45         1.1300    4.4050    4.3790 hc        1 MOL      0.045860
    101 H46        -0.0630    3.2260    4.7090 hc        1 MOL      0.045860
    102 N10        -2.4870    2.3880    0.4830 n         1 MOL     -0.354117
    103 C32        -2.3770    1.0500   -0.1280 c3        1 MOL     -0.116214
    104 C33        -3.6550    0.2140   -0.2770 c         1 MOL      0.694415
    105 O16        -3.6210   -1.0110   -0.0160 o         1 MOL     -0.543927
    106 C34        -1.1560    0.2690    0.5570 c3        1 MOL     -0.167946
    107 C35        -0.5670   -0.7730   -0.3510 c         1 MOL      0.771737
    108 O17         0.3330   -1.5090    0.0650 o         1 MOL     -0.807671
    109 O18        -1.0240   -1.0350   -1.5060 o         1 MOL     -0.807671
    110 H47        -3.2120    2.5780    1.1650 hn        1 MOL      0.235231
    111 H48        -2.0810    1.3590   -1.1310 h1        1 MOL      0.076956
    112 H49        -1.3620   -0.2990    1.4610 hc        1 MOL      0.094559
    113 H50        -0.4530    1.0100    0.9510 hc        1 MOL      0.094559
    114 N11        -4.7830    0.8170   -0.6180 n         1 MOL     -0.511266
    115 C36        -6.0450    0.0360   -0.8830 c3        1 MOL      0.165256
    116 C37        -6.4210   -0.9690    0.2420 c         1 MOL      0.316469
    117 O19        -6.3670   -0.6180    1.4340 o         1 MOL     -0.479068
    118 C38        -7.1940    1.0650   -1.1550 c3        1 MOL     -0.187352
    119 C39        -8.4410    0.4350   -1.7110 ca        1 MOL      0.137008
    120 C40        -8.3480   -0.1890   -2.9620 ca        1 MOL     -0.202301
    121 C41        -9.7050    0.6330   -1.0460 ca        1 MOL     -0.202301
    122 C42        -9.4270   -0.8500   -3.5370 ca        1 MOL     -0.080691
    123 C43       -10.7420   -0.0570   -1.6650 ca        1 MOL     -0.080691
    124 C44       -10.6600   -0.7720   -2.9140 ca        1 MOL     -0.161899
    125 H51        -4.6550    1.7930   -0.8630 hn        1 MOL      0.275411
    126 H52        -5.8130   -0.4620   -1.8160 h1        1 MOL      0.032209
    127 H53        -6.8160    1.7620   -1.9020 hc        1 MOL      0.082350
    128 H54        -7.3220    1.6260   -0.2270 hc        1 MOL      0.082350
    129 H55        -7.4240   -0.2520   -3.5290 ha        1 MOL      0.142509
    130 H56        -9.8070    1.0730   -0.0580 ha        1 MOL      0.142509
    131 H57        -9.2560   -1.3210   -4.4960 ha        1 MOL      0.094695
    132 H58       -11.7280   -0.0550   -1.2110 ha        1 MOL      0.094695
    133 H59       -11.5220   -1.2700   -3.3320 ha        1 MOL      0.113749
    134 N12        -6.7310   -2.2250   -0.1770 n         1 MOL      0.032520
    135 C45        -7.3550   -3.2720    0.7170 c3        1 MOL      0.030391
    136 C46        -6.4440   -3.8010    1.7780 c         1 MOL      0.284156
    137 O20        -6.9800   -4.2730    2.7740 o         1 MOL     -0.501978
    138 C47        -7.8840   -4.3880   -0.2190 c3        1 MOL     -0.132360
    139 C48        -6.8620   -4.2830   -1.3770 c3        1 MOL      0.215377
    140 C49        -6.7750   -2.7860   -1.5660 c3        1 MOL     -0.454779
    141 H60        -8.2130   -2.8100    1.2040 h1        1 MOL      0.070013
    142 H61        -7.7690   -5.3770    0.2210 hc        1 MOL      0.057961
    143 H62        -8.9220   -4.2370   -0.5380 hc        1 MOL      0.057961
    144 H63        -5.9090   -4.6430   -0.9990 hc        1 MOL     -0.024398
    145 H64        -7.1490   -4.9260   -2.2050 hc        1 MOL     -0.024398
    146 H65        -5.8660   -2.5010   -2.0930 h1        1 MOL      0.150420
    147 H66        -7.6840   -2.4350   -2.0530 h1        1 MOL      0.150420
    148 N13        -5.0800   -3.7540    1.6770 n         1 MOL     -0.000255
    149 C50        -4.1300   -4.0010    2.7420 c3        1 MOL     -0.432376
    150 C51        -4.1190   -2.8780    3.8600 c         1 MOL      0.518179
    151 O21        -3.6050   -3.0650    4.9350 o         1 MOL     -0.566529
    152 C52        -2.7600   -4.1510    2.0190 c3        1 MOL      0.165441
    153 C53        -2.6490   -5.3040    1.0480 c3        1 MOL     -0.252714
    154 C54        -1.2150   -5.1570    0.4000 c         1 MOL      0.776869
    155 O22        -0.3650   -5.8820    0.9750 o         1 MOL     -0.739177
    156 O23        -1.0330   -4.4780   -0.6340 o         1 MOL     -0.739177
    157 H67        -4.7120   -3.4590    0.7700 hn        1 MOL      0.222324
    158 H68        -4.3570   -4.9820    3.1680 h1        1 MOL      0.181091
    159 H69        -1.9380   -4.1930    2.7350 hc        1 MOL      0.049944
    160 H70        -2.6130   -3.3090    1.3530 hc        1 MOL      0.049944
    161 H71        -3.4870   -5.4060    0.3590 hc        1 MOL      0.026080
    162 H72        -2.7640   -6.2020    1.6610 hc        1 MOL      0.026080
    163 N14        -4.5280   -1.6940    3.5750 n         1 MOL     -0.099542
    164 C55        -4.6180   -0.5040    4.4860 c3        1 MOL     -0.239984
    165 H73        -4.2600    0.3820    3.9620 h1        1 MOL      0.104364
    166 H74        -5.6550   -0.3540    4.7870 h1        1 MOL      0.104364
    167 H75        -4.0040   -0.6750    5.3700 h1        1 MOL      0.104364
    168 H76        -4.7730   -1.5920    2.6030 hn        1 MOL      0.109624
    169 Ca1         0.7470   -3.1710   -2.0300 Ca        1 MOL      1.811670
    170 O24        -0.2000   -5.1330   -3.6630 oh        1 MOL     -0.853590
    171 H77         0.1310   -5.1710   -4.5590 ho        1 MOL      0.410467
    172 H78        -0.7620   -5.8980   -3.5860 ho        1 MOL      0.410467
    173 O25         2.6490   -4.2370   -3.5400 oh        1 MOL     -0.853590
    174 H79         2.3530   -4.2610   -4.4570 ho        1 MOL      0.410467
    175 H80         3.2340   -4.9840   -3.4630 ho        1 MOL      0.410467
    176 O26         0.6090   -2.2760   -4.6090 oh        1 MOL     -0.853590
    177 H81        -0.2330   -2.2220   -5.0570 ho        1 MOL      0.410467
    178 H82         1.2520   -2.0080   -5.2630 ho        1 MOL      0.410467
    179 O27         1.7100   -5.3750   -0.8880 oh        1 MOL     -0.853590
    180 H83         1.0270   -5.7760   -0.3360 ho        1 MOL      0.410467
    181 H84         2.4320   -5.9940   -0.8550 ho        1 MOL      0.410467
@<TRIPOS>BOND
     1    1    2 1   
     2    1    4 1   
     3    1    5 1   
     4    1    6 1   
     5    2    3 2   
     6    2    7 1   
     7    7    8 1   
     8    7   15 1   
     9    8    9 1   
    10    8   11 1   
    11    8   16 1   
    12    9   10 2   
    13    9   19 1   
    14   11   12 1   
    15   11   17 1   
    16   11   18 1   
    17   12   13 1   
    18   12   14 1   
    19   19   20 1   
    20   19   24 1   
    21   20   21 1   
    22   20   23 1   
    23   20   25 1   
    24   21   22 2   
    25   21   29 1   
    26   23   26 1   
    27   23   27 1   
    28   23   28 1   
    29   29   30 1   
    30   29   37 1   
    31   30   31 1   
    32   30   33 1   
    33   30   38 1   
    34   31   32 2   
    35   31   41 1   
    36   33   34 1   
    37   33   39 1   
    38   33   40 1   
    39   34   35 1   
    40   34   36 1   
    41   41   42 1   
    42   41   45 1   
    43   42   43 1   
    44   42   46 1   
    45   42   47 1   
    46   43   44 2   
    47   43   48 1   
    48   48   49 1   
    49   48   56 1   
    50   49   50 1   
    51   49   52 1   
    52   49   57 1   
    53   50   51 2   
    54   50   62 1   
    55   52   53 1   
    56   52   58 1   
    57   52   59 1   
    58   53   54 1   
    59   53   55 2   
    60   54   60 1   
    61   54   61 1   
    62   62   63 1   
    63   62   66 1   
    64   63   64 1   
    65   63   67 1   
    66   63   68 1   
    67   64   65 2   
    68   64   69 1   
    69   69   70 1   
    70   69   76 1   
    71   70   71 1   
    72   70   73 1   
    73   70   77 1   
    74   71   72 2   
    75   71   83 1   
    76   73   74 1   
    77   73   75 1   
    78   73   78 1   
    79   74   80 1   
    80   74   81 1   
    81   74   82 1   
    82   75   79 1   
    83   83   84 1   
    84   83   91 1   
    85   84   85 1   
    86   84   87 1   
    87   84   92 1   
    88   85   86 2   
    89   85  102 1   
    90   87   88 1   
    91   87   89 1   
    92   87   93 1   
    93   88   90 1   
    94   88   94 1   
    95   88   95 1   
    96   89   96 1   
    97   89   97 1   
    98   89   98 1   
    99   90   99 1   
   100   90  100 1   
   101   90  101 1   
   102  102  103 1   
   103  102  110 1   
   104  103  104 1   
   105  103  106 1   
   106  103  111 1   
   107  104  105 2   
   108  104  114 1   
   109  106  107 1   
   110  106  112 1   
   111  106  113 1   
   112  107  108 1   
   113  107  109 1   
   114  114  115 1   
   115  114  125 1   
   116  115  116 1   
   117  115  118 1   
   118  115  126 1   
   119  116  117 2   
   120  116  134 1   
   121  118  119 1   
   122  118  127 1   
   123  118  128 1   
   124  119  120 ar  
   125  119  121 ar  
   126  120  122 ar  
   127  120  129 1   
   128  121  123 ar  
   129  121  130 1   
   130  122  124 ar  
   131  122  131 1   
   132  123  124 ar  
   133  123  132 1   
   134  124  133 1   
   135  134  135 1   
   136  134  140 1   
   137  135  136 1   
   138  135  138 1   
   139  135  141 1   
   140  136  137 2   
   141  136  148 1   
   142  138  139 1   
   143  138  142 1   
   144  138  143 1   
   145  139  140 1   
   146  139  144 1   
   147  139  145 1   
   148  140  146 1   
   149  140  147 1   
   150  148  149 1   
   151  148  157 1   
   152  149  150 1   
   153  149  152 1   
   154  149  158 1   
   155  150  151 2   
   156  150  163 1   
   157  152  153 1   
   158  152  159 1   
   159  152  160 1   
   160  153  154 1   
   161  153  161 1   
   162  153  162 1   
   163  154  155 1   
   164  154  156 1   
   165  163  164 1   
   166  163  168 1   
   167  164  165 1   
   168  164  166 1   
   169  164  167 1   
   170  170  171 1   
   171  170  172 1   
   172  173  174 1   
   173  173  175 1   
   174  176  177 1   
   175  176  178 1   
   176  179  180 1   
   177  179  181 1   
@<TRIPOS>SUBSTRUCTURE
     1 MOL         1 TEMP              0 ****  ****    0 ROOT
