@<TRIPOS>MOLECULE
MOL
  186   183     1     0     0
SMALL
resp


@<TRIPOS>ATOM
      1 C1         11.6120    6.3280   -2.4070 c3        1 MOL     -0.146016
      2 C2         11.5050    5.0290   -1.6090 c         1 MOL      0.730844
      3 O1         12.0430    3.9670   -2.0200 o         1 MOL     -0.623131
      4 H1         11.7700    6.0950   -3.4600 hc        1 MOL      0.033312
      5 H2         10.6910    6.8990   -2.2960 hc        1 MOL      0.033312
      6 H3         12.4530    6.9150   -2.0350 hc        1 MOL      0.033312
      7 N1         10.8140    5.1400   -0.4420 n         1 MOL     -0.326144
      8 C3         10.8120    4.0690    0.4610 c3        1 MOL     -0.445711
      9 C4          9.6500    3.0960    0.1280 c         1 MOL      0.628141
     10 O2          8.5010    3.3290    0.1900 o         1 MOL     -0.520553
     11 C5         10.7170    4.5010    1.9140 c3        1 MOL      0.070342
     12 C6          9.3730    5.0670    2.3750 c         1 MOL      0.735785
     13 O3          8.7110    5.7160    1.5630 o         1 MOL     -0.721066
     14 O4          8.9770    4.9890    3.5540 o         1 MOL     -0.721066
     15 H4         10.4000    6.0110   -0.1510 hn        1 MOL      0.145114
     16 H5         11.7120    3.5020    0.2070 h1        1 MOL      0.161531
     17 H6         11.3850    5.3380    2.0830 hc        1 MOL      0.047110
     18 H7         11.0470    3.6820    2.5460 hc        1 MOL      0.047110
     19 N2         10.0330    1.7830   -0.1010 n         1 MOL     -0.357130
     20 C7          9.2210    0.6100   -0.5880 c3        1 MOL     -0.169056
     21 C8          8.1000    0.2080    0.3470 c         1 MOL      0.925994
     22 O5          8.3230   -0.3020    1.4350 o         1 MOL     -0.626284
     23 C9         10.1630   -0.5470   -0.9220 c3        1 MOL     -0.578656
     24 C10         9.5490   -1.6920   -1.6430 c3        1 MOL      0.303558
     25 C11        10.5660   -2.7640   -2.0480 c3        1 MOL     -0.059719
     26 C12         9.9460   -4.0110   -2.6470 c3        1 MOL     -0.101987
     27 N3         10.9120   -4.9250   -3.2390 n4        1 MOL     -0.055952
     28 H8         10.9550    1.5300    0.2260 hn        1 MOL      0.270794
     29 H9          8.7890    0.9230   -1.5370 h1        1 MOL      0.194821
     30 H10        10.6600   -0.9530   -0.0360 hc        1 MOL      0.177459
     31 H11        10.8220   -0.0330   -1.6260 hc        1 MOL      0.177459
     32 H12         9.1480   -1.2460   -2.5490 hc        1 MOL     -0.025201
     33 H13         8.6750   -2.1610   -1.1910 hc        1 MOL     -0.025201
     34 H14        10.9450   -3.1700   -1.1140 hc        1 MOL      0.037482
     35 H15        11.4240   -2.2440   -2.4760 hc        1 MOL      0.037482
     36 H16         9.2800   -3.5870   -3.3960 hx        1 MOL      0.108045
     37 H17         9.4420   -4.5490   -1.8410 hx        1 MOL      0.108045
     38 H18        11.1900   -5.5920   -2.5260 hn        1 MOL      0.208529
     39 H19        10.6050   -5.5580   -3.9770 hn        1 MOL      0.208529
     40 H20        11.7630   -4.4910   -3.5510 hn        1 MOL      0.208529
     41 N4          6.8880    0.3230   -0.0930 n         1 MOL     -0.815787
     42 C13         5.6200   -0.0570    0.5910 c3        1 MOL      0.587248
     43 C14         4.8250   -1.1360   -0.2280 c         1 MOL      0.328885
     44 O6          5.0340   -1.2720   -1.4880 o         1 MOL     -0.560527
     45 C15         4.7630    1.2060    0.8530 c3        1 MOL      0.092817
     46 C16         5.4310    2.5430    0.6150 c         1 MOL      0.548763
     47 O7          5.5660    2.9860   -0.5490 o         1 MOL     -0.727034
     48 O8          5.7130    3.2310    1.6100 o         1 MOL     -0.727034
     49 H21         6.8650    0.9050   -0.9150 hn        1 MOL      0.296465
     50 H22         5.8250   -0.4800    1.5750 h1        1 MOL     -0.026682
     51 H23         4.5090    1.1570    1.9130 hc        1 MOL     -0.015620
     52 H24         3.8730    1.2310    0.2290 hc        1 MOL     -0.015620
     53 N5          4.0110   -2.0420    0.3770 n         1 MOL     -0.445186
     54 C17         3.3810   -1.9280    1.6940 c3        1 MOL     -0.180014
     55 C18         2.7930   -3.2790    2.1900 c         1 MOL      0.581807
     56 O9          3.0780   -4.3880    1.6960 o         1 MOL     -0.531858
     57 H25         3.6420   -2.6500   -0.3460 hn        1 MOL      0.362783
     58 H26         2.6320   -1.1460    1.5980 h1        1 MOL      0.102273
     59 H27         4.0080   -1.5790    2.5130 h1        1 MOL      0.102273
     60 N6          2.0510   -3.2420    3.3280 n         1 MOL     -0.359281
     61 C19         1.5260   -4.4040    4.0460 c3        1 MOL     -0.117805
     62 C20         0.3780   -5.1070    3.2590 c         1 MOL      0.666225
     63 O10        -0.6670   -4.5850    3.0600 o         1 MOL     -0.541144
     64 C21         1.0570   -3.8940    5.3710 c3        1 MOL     -0.209786
     65 C22         0.7480   -5.0150    6.2920 c         1 MOL      0.768402
     66 O11         0.6500   -6.1680    5.8080 o         1 MOL     -0.672093
     67 O12         0.4980   -4.7160    7.4540 o         1 MOL     -0.672093
     68 H28         1.7950   -2.3680    3.7550 hn        1 MOL      0.252419
     69 H29         2.3350   -5.1090    4.2250 h1        1 MOL      0.088435
     70 H30         0.1120   -3.3490    5.3460 hc        1 MOL      0.069596
     71 H31         1.8870   -3.2730    5.7230 hc        1 MOL      0.069596
     72 N7          0.7180   -6.2380    2.6200 n         1 MOL     -0.455523
     73 C23        -0.1260   -7.1010    1.7430 c3        1 MOL     -0.120261
     74 C24        -0.2850   -6.5960    0.3890 c         1 MOL      0.411901
     75 O13        -1.2250   -6.9960   -0.3190 o         1 MOL     -0.591026
     76 H32         1.7130   -6.4000    2.6530 hn        1 MOL      0.258262
     77 H33        -1.1420   -7.0750    2.1420 h1        1 MOL      0.133241
     78 H34         0.2050   -8.1420    1.7230 h1        1 MOL      0.133241
     79 N8          0.4420   -5.6240   -0.0450 n         1 MOL     -0.022186
     80 C25         0.2320   -4.8300   -1.2880 c3        1 MOL     -0.171847
     81 C26         0.1420   -3.2860   -1.0730 c         1 MOL      0.257632
     82 O14         0.7980   -2.7400   -0.1760 o         1 MOL     -0.431010
     83 C27         1.2630   -5.1250   -2.3500 c3        1 MOL      0.425211
     84 C28         2.7480   -4.8880   -2.0880 c3        1 MOL     -0.270978
     85 O15         1.3730   -6.4930   -2.5700 oh        1 MOL     -0.607536
     86 H35         1.2410   -5.3470    0.4990 hn        1 MOL      0.146576
     87 H36        -0.6290   -5.2760   -1.7880 h1        1 MOL      0.097823
     88 H37         0.9380   -4.6260   -3.2690 h1        1 MOL      0.025968
     89 H38         1.6760   -6.7650   -1.7030 ho        1 MOL      0.354257
     90 H39         3.3310   -5.1260   -2.9810 hc        1 MOL      0.054862
     91 H40         2.9580   -3.8570   -1.7970 hc        1 MOL      0.054862
     92 H41         3.0280   -5.4730   -1.2010 hc        1 MOL      0.054862
     93 N9         -0.7660   -2.5720   -1.7680 n         1 MOL     -0.235645
     94 C29        -1.0960   -1.1730   -1.4910 c3        1 MOL      0.019387
     95 C30        -2.5760   -1.0720   -0.9230 c         1 MOL      0.600756
     96 O16        -2.7790   -0.3970    0.0900 o         1 MOL     -0.532082
     97 C31        -0.9340   -0.1840   -2.6880 c3        1 MOL      0.207886
     98 C32         0.3790   -0.4160   -3.5410 c3        1 MOL     -0.077989
     99 C33        -0.9740    1.2280   -2.1580 c3        1 MOL     -0.380933
    100 C34         1.7890   -0.2520   -2.9080 c3        1 MOL     -0.142827
    101 H42        -1.2890   -3.1630   -2.4060 hn        1 MOL      0.221842
    102 H43        -0.4420   -0.7960   -0.7180 h1        1 MOL      0.075960
    103 H44        -1.7720   -0.4620   -3.3340 hc        1 MOL     -0.039811
    104 H45         0.2590    0.3550   -4.3010 hc        1 MOL      0.007686
    105 H46         0.1990   -1.3800   -4.0160 hc        1 MOL      0.007686
    106 H47        -1.8920    1.5000   -1.6390 hc        1 MOL      0.100302
    107 H48        -0.1480    1.3910   -1.4680 hc        1 MOL      0.100302
    108 H49        -0.8400    1.9380   -2.9830 hc        1 MOL      0.100302
    109 H50         1.9260    0.7120   -2.4070 hc        1 MOL      0.051796
    110 H51         1.8690   -1.0330   -2.1470 hc        1 MOL      0.051796
    111 H52         2.5440   -0.4390   -3.6740 hc        1 MOL      0.051796
    112 N10        -3.5440   -1.7950   -1.5700 n         1 MOL     -0.615615
    113 C35        -4.8920   -2.1670   -1.1110 c3        1 MOL      0.262275
    114 C36        -5.9640   -1.9010   -2.1660 c         1 MOL      0.413735
    115 O17        -5.5960   -1.7890   -3.3460 o         1 MOL     -0.508598
    116 C37        -4.8310   -3.6590   -0.6250 c3        1 MOL      0.240813
    117 C38        -3.7630   -4.0650    0.3620 c3        1 MOL     -0.466565
    118 O18        -6.0440   -4.0130   -0.0450 oh        1 MOL     -0.648281
    119 H53        -3.2680   -2.3440   -2.3800 hn        1 MOL      0.290678
    120 H54        -5.2250   -1.5710   -0.2630 h1        1 MOL      0.047027
    121 H55        -4.6160   -4.1340   -1.5770 h1        1 MOL     -0.000401
    122 H56        -5.9600   -4.9340    0.1910 ho        1 MOL      0.425075
    123 H57        -3.8500   -3.5380    1.3150 hc        1 MOL      0.156628
    124 H58        -3.8060   -5.1360    0.5370 hc        1 MOL      0.156628
    125 H59        -2.7530   -3.8360    0.0240 hc        1 MOL      0.156628
    126 N11        -7.2480   -1.8580   -1.8090 n         1 MOL     -0.335844
    127 C39        -8.4060   -1.6630   -2.7690 c3        1 MOL     -0.031426
    128 C40        -9.0760   -0.2640   -2.7160 c         1 MOL      0.471638
    129 O19        -9.7780    0.1600   -3.6590 o         1 MOL     -0.529085
    130 C41        -9.4440   -2.7050   -2.5370 c3        1 MOL      0.442640
    131 C42       -10.0660   -2.5900   -1.2040 c3        1 MOL     -0.021989
    132 O20        -9.0280   -3.9450   -2.8760 oh        1 MOL     -0.675127
    133 H60        -7.5170   -1.9440   -0.8420 hn        1 MOL      0.296419
    134 H61        -8.0280   -1.8020   -3.7820 h1        1 MOL      0.096921
    135 H62       -10.2070   -2.4980   -3.2880 h1        1 MOL     -0.065252
    136 H63        -9.2150   -4.1450   -3.7990 ho        1 MOL      0.429345
    137 H64       -10.6110   -1.6580   -1.0720 hc        1 MOL     -0.006811
    138 H65       -10.7600   -3.4040   -1.0110 hc        1 MOL     -0.006811
    139 H66        -9.2520   -2.6120   -0.4740 hc        1 MOL     -0.006811
    140 N12        -8.7420    0.5270   -1.6790 n         1 MOL     -0.312960
    141 C43        -9.5400    1.6910   -1.2730 c3        1 MOL     -0.077322
    142 C44        -8.8980    2.5290   -0.1860 c         1 MOL      0.694392
    143 O21        -8.5010    1.9580    0.7990 o         1 MOL     -0.532058
    144 C45       -10.8480    1.1750   -0.6860 c3        1 MOL     -0.059714
    145 C46       -11.8170    2.2370   -0.1430 c3        1 MOL     -0.062285
    146 C47       -13.1010    1.7910    0.5190 c3        1 MOL     -0.094515
    147 C48       -12.7200    1.0900    1.8110 c3        1 MOL      0.082918
    148 N13       -13.7570    0.2410    2.4480 n4        1 MOL     -0.181424
    149 H67        -8.1270    0.1640   -0.9670 hn        1 MOL      0.167919
    150 H68        -9.7180    2.3350   -2.1350 h1        1 MOL      0.102358
    151 H69       -10.6360    0.4770    0.1240 hc        1 MOL      0.031783
    152 H70       -11.3430    0.6680   -1.5130 hc        1 MOL      0.031783
    153 H71       -12.0030    2.8260   -1.0300 hc        1 MOL      0.066585
    154 H72       -11.2760    2.8460    0.5810 hc        1 MOL      0.066585
    155 H73       -13.7010    1.1120   -0.0850 hc        1 MOL      0.051171
    156 H74       -13.7350    2.6260    0.7940 hc        1 MOL      0.051171
    157 H75       -12.3760    1.7730    2.5860 hx        1 MOL      0.067524
    158 H76       -11.8930    0.4130    1.5850 hx        1 MOL      0.067524
    159 H77       -14.6380    0.7230    2.3710 hn        1 MOL      0.223435
    160 H78       -13.9450   -0.5960    1.9010 hn        1 MOL      0.223435
    161 H79       -13.6490    0.0940    3.4450 hn        1 MOL      0.223435
    162 N14        -8.9230    3.8500   -0.2970 n         1 MOL     -0.596353
    163 C49        -8.5440    4.7170    0.7910 c3        1 MOL      0.300085
    164 C50        -7.1120    4.5750    1.3390 c         1 MOL      0.345410
    165 O22        -7.0510    4.3880    2.5450 o         1 MOL     -0.514292
    166 C51        -8.8400    6.1540    0.4630 c3        1 MOL     -0.033635
    167 C52        -8.9540    7.0920    1.6570 c3        1 MOL     -0.295601
    168 C53        -9.1750    8.6070    1.4440 c         1 MOL      0.780178
    169 O23        -8.4050    9.4710    1.8250 o         1 MOL     -0.670605
    170 O24       -10.2630    8.9190    0.9170 o         1 MOL     -0.670605
    171 H80        -9.5650    4.1910   -0.9960 hn        1 MOL      0.267194
    172 H81        -9.1970    4.4590    1.6330 h1        1 MOL      0.006940
    173 H82        -9.7470    6.2900   -0.1140 hc        1 MOL      0.018525
    174 H83        -8.0880    6.5120   -0.2330 hc        1 MOL      0.018525
    175 H84        -8.0790    7.1180    2.3060 hc        1 MOL      0.062014
    176 H85        -9.8100    6.7300    2.2300 hc        1 MOL      0.062014
    177 N15        -5.9550    4.6130    0.6100 n         1 MOL     -0.289183
    178 C54        -5.8810    4.8690   -0.8220 c3        1 MOL     -0.050201
    179 H86        -4.8510    4.7570   -1.1580 h1        1 MOL      0.051003
    180 H87        -6.5150    4.1570   -1.3520 h1        1 MOL      0.051003
    181 H88        -6.2210    5.8830   -1.0300 h1        1 MOL      0.051003
    182 H89        -5.1110    4.6880    1.1680 hn        1 MOL      0.280711
    183 Ca1         6.5290    5.2900    0.3220 Ca        1 MOL      1.679599
    184 O25         7.4000    5.1910   -2.4630 oh        1 MOL     -0.802539
    185 H90         7.7560    5.2020   -3.3450 ho        1 MOL      0.396256
    186 H91         6.8710    5.9940   -2.4080 ho        1 MOL      0.396256
@<TRIPOS>BOND
     1    1    2 1   
     2    1    4 1   
     3    1    5 1   
     4    1    6 1   
     5    2    3 2   
     6    2    7 1   
     7    7    8 1   
     8    7   15 1   
     9    8    9 1   
    10    8   11 1   
    11    8   16 1   
    12    9   10 2   
    13    9   19 1   
    14   11   12 1   
    15   11   17 1   
    16   11   18 1   
    17   12   13 1   
    18   12   14 1   
    19   19   20 1   
    20   19   28 1   
    21   20   21 1   
    22   20   23 1   
    23   20   29 1   
    24   21   22 2   
    25   21   41 1   
    26   23   24 1   
    27   23   30 1   
    28   23   31 1   
    29   24   25 1   
    30   24   32 1   
    31   24   33 1   
    32   25   26 1   
    33   25   34 1   
    34   25   35 1   
    35   26   27 1   
    36   26   36 1   
    37   26   37 1   
    38   27   38 1   
    39   27   39 1   
    40   27   40 1   
    41   41   42 1   
    42   41   49 1   
    43   42   43 1   
    44   42   45 1   
    45   42   50 1   
    46   43   44 2   
    47   43   53 1   
    48   45   46 1   
    49   45   51 1   
    50   45   52 1   
    51   46   47 1   
    52   46   48 1   
    53   53   54 1   
    54   53   57 1   
    55   54   55 1   
    56   54   58 1   
    57   54   59 1   
    58   55   56 2   
    59   55   60 1   
    60   60   61 1   
    61   60   68 1   
    62   61   62 1   
    63   61   64 1   
    64   61   69 1   
    65   62   63 2   
    66   62   72 1   
    67   64   65 1   
    68   64   70 1   
    69   64   71 1   
    70   65   66 1   
    71   65   67 1   
    72   72   73 1   
    73   72   76 1   
    74   73   74 1   
    75   73   77 1   
    76   73   78 1   
    77   74   75 2   
    78   74   79 1   
    79   79   80 1   
    80   79   86 1   
    81   80   81 1   
    82   80   83 1   
    83   80   87 1   
    84   81   82 2   
    85   81   93 1   
    86   83   84 1   
    87   83   85 1   
    88   83   88 1   
    89   84   90 1   
    90   84   91 1   
    91   84   92 1   
    92   85   89 1   
    93   93   94 1   
    94   93  101 1   
    95   94   95 1   
    96   94   97 1   
    97   94  102 1   
    98   95   96 2   
    99   95  112 1   
   100   97   98 1   
   101   97   99 1   
   102   97  103 1   
   103   98  100 1   
   104   98  104 1   
   105   98  105 1   
   106   99  106 1   
   107   99  107 1   
   108   99  108 1   
   109  100  109 1   
   110  100  110 1   
   111  100  111 1   
   112  112  113 1   
   113  112  119 1   
   114  113  114 1   
   115  113  116 1   
   116  113  120 1   
   117  114  115 2   
   118  114  126 1   
   119  116  117 1   
   120  116  118 1   
   121  116  121 1   
   122  117  123 1   
   123  117  124 1   
   124  117  125 1   
   125  118  122 1   
   126  126  127 1   
   127  126  133 1   
   128  127  128 1   
   129  127  130 1   
   130  127  134 1   
   131  128  129 2   
   132  128  140 1   
   133  130  131 1   
   134  130  132 1   
   135  130  135 1   
   136  131  137 1   
   137  131  138 1   
   138  131  139 1   
   139  132  136 1   
   140  140  141 1   
   141  140  149 1   
   142  141  142 1   
   143  141  144 1   
   144  141  150 1   
   145  142  143 2   
   146  142  162 1   
   147  144  145 1   
   148  144  151 1   
   149  144  152 1   
   150  145  146 1   
   151  145  153 1   
   152  145  154 1   
   153  146  147 1   
   154  146  155 1   
   155  146  156 1   
   156  147  148 1   
   157  147  157 1   
   158  147  158 1   
   159  148  159 1   
   160  148  160 1   
   161  148  161 1   
   162  162  163 1   
   163  162  171 1   
   164  163  164 1   
   165  163  166 1   
   166  163  172 1   
   167  164  165 2   
   168  164  177 1   
   169  166  167 1   
   170  166  173 1   
   171  166  174 1   
   172  167  168 1   
   173  167  175 1   
   174  167  176 1   
   175  168  169 1   
   176  168  170 1   
   177  177  178 1   
   178  177  182 1   
   179  178  179 1   
   180  178  180 1   
   181  178  181 1   
   182  184  185 1   
   183  184  186 1   
@<TRIPOS>SUBSTRUCTURE
     1 MOL         1 TEMP              0 ****  ****    0 ROOT
