@<TRIPOS>MOLECULE
MOL
  184   179     1     0     0
SMALL
resp


@<TRIPOS>ATOM
      1 C1          3.4980   -2.8730    4.4250 c3        1 MOL     -0.324479
      2 C2          4.5470   -1.8060    4.0600 c         1 MOL      0.712293
      3 O1          4.3630   -0.7160    3.5610 o         1 MOL     -0.565497
      4 H1          3.4470   -2.9750    5.5100 hc        1 MOL      0.076137
      5 H2          2.5240   -2.5700    4.0440 hc        1 MOL      0.076137
      6 H3          3.7820   -3.8280    3.9840 hc        1 MOL      0.076137
      7 N1          5.8050   -2.2160    4.2940 n         1 MOL     -0.589124
      8 C3          6.9120   -1.4030    3.8020 c3        1 MOL      0.171812
      9 C4          7.1680   -1.7540    2.2930 c         1 MOL      0.624437
     10 O2          6.9170   -2.8960    1.8120 o         1 MOL     -0.614655
     11 C5          8.0630   -1.5200    4.7940 c3        1 MOL     -0.227329
     12 C6          9.0890   -0.4720    4.3530 c         1 MOL      0.713429
     13 O3          8.8550    0.7770    4.3180 o         1 MOL     -0.731630
     14 O4         10.1980   -0.9080    3.9920 o         1 MOL     -0.731630
     15 H4          5.9300   -3.1740    4.5690 hn        1 MOL      0.294320
     16 H5          6.5410   -0.3740    3.7890 h1        1 MOL      0.043449
     17 H6          8.5180   -2.5070    4.7320 hc        1 MOL      0.027125
     18 H7          7.7360   -1.4270    5.8310 hc        1 MOL      0.027125
     19 N2          7.5990   -0.7840    1.4820 n         1 MOL     -0.693449
     20 C7          7.9830   -1.0120    0.0410 c3        1 MOL      0.600757
     21 C8          6.7350   -1.0940   -0.7920 c         1 MOL      0.581629
     22 O5          5.8510   -0.1950   -0.6520 o         1 MOL     -0.568106
     23 C9          8.9390    0.0640   -0.3940 c3        1 MOL     -0.519479
     24 H8          7.8210    0.1100    1.8930 hn        1 MOL      0.332031
     25 H9          8.4750   -1.9660   -0.1510 h1        1 MOL     -0.070058
     26 H10         9.4610    0.5580    0.4290 hc        1 MOL      0.123350
     27 H11         9.6990   -0.3800   -1.0300 hc        1 MOL      0.123350
     28 H12         8.3110    0.8350   -0.8390 hc        1 MOL      0.123350
     29 N3          6.6380   -2.0610   -1.7040 n         1 MOL     -0.727947
     30 C10         5.3490   -2.3450   -2.4370 c3        1 MOL      0.194845
     31 C11         5.0020   -1.1990   -3.4040 c         1 MOL      0.507850
     32 O6          5.9850   -0.6860   -4.0420 o         1 MOL     -0.532919
     33 C12         5.3260   -3.7770   -3.1350 c3        1 MOL     -0.213396
     34 C13         3.9470   -4.2680   -3.4960 c         1 MOL      0.685387
     35 O7          2.9600   -3.7570   -3.0470 o         1 MOL     -0.715421
     36 O8          3.9440   -5.1170   -4.3860 o         1 MOL     -0.715421
     37 H13         7.3350   -2.7970   -1.6790 hn        1 MOL      0.329920
     38 H14         4.5890   -2.3680   -1.6640 h1        1 MOL      0.095097
     39 H15         5.6860   -4.5280   -2.4270 hc        1 MOL      0.058430
     40 H16         5.8930   -3.8350   -4.0640 hc        1 MOL      0.058430
     41 N4          3.7310   -0.9150   -3.7060 n         1 MOL     -0.441623
     42 C14         3.2690    0.1700   -4.6720 c3        1 MOL     -0.091677
     43 C15         3.3630    1.6260   -4.1260 c         1 MOL      0.614280
     44 O9          4.2100    1.9150   -3.3040 o         1 MOL     -0.464221
     45 H17         3.0230   -1.3790   -3.1710 hn        1 MOL      0.394339
     46 H18         2.2160   -0.0160   -4.8760 h1        1 MOL      0.062385
     47 H19         3.8370    0.1760   -5.6030 h1        1 MOL      0.062385
     48 N5          2.5670    2.5170   -4.7050 n         1 MOL     -0.537016
     49 C16         2.4720    3.9210   -4.2320 c3        1 MOL      0.165473
     50 C17         1.9690    4.0600   -2.7970 c         1 MOL      0.346760
     51 O10         1.1890    3.2240   -2.2820 o         1 MOL     -0.438616
     52 C18         1.5180    4.7120   -5.1340 c3        1 MOL     -0.264596
     53 C19         1.6550    6.1690   -5.0220 c         1 MOL      0.623988
     54 N6          0.7770    6.8590   -4.3200 n         1 MOL     -0.753994
     55 O11         2.5910    6.7810   -5.5080 o         1 MOL     -0.556922
     56 H20         1.8700    2.1960   -5.3610 hn        1 MOL      0.289595
     57 H21         3.4310    4.4110   -4.3630 h1        1 MOL      0.039618
     58 H22         0.5070    4.3700   -4.9110 hc        1 MOL      0.087476
     59 H23         1.6810    4.3630   -6.1630 hc        1 MOL      0.087476
     60 H24        -0.0460    6.4200   -3.9400 hn        1 MOL      0.352491
     61 H25         0.8270    7.8540   -4.1660 hn        1 MOL      0.352491
     62 N7          2.3190    5.1760   -2.2220 n         1 MOL     -0.220816
     63 C20         2.0820    5.5130   -0.7870 c3        1 MOL     -0.376348
     64 C21         0.6270    5.8530   -0.4270 c         1 MOL      0.755339
     65 O12        -0.1910    5.7040   -1.3110 o         1 MOL     -0.547235
     66 H26         2.9460    5.7550   -2.7640 hn        1 MOL      0.274913
     67 H27         2.6870    6.3850   -0.5300 h1        1 MOL      0.149121
     68 H28         2.2780    4.6600   -0.1320 h1        1 MOL      0.149121
     69 N8          0.3780    6.3240    0.7610 n         1 MOL     -0.593034
     70 C22        -0.9940    6.7740    1.2190 c3        1 MOL     -0.217327
     71 C23        -1.6150    5.8310    2.1990 c         1 MOL      0.478345
     72 O13        -2.6590    6.0520    2.8540 o         1 MOL     -0.575334
     73 C24        -1.0390    8.1530    1.7240 c3        1 MOL      0.517024
     74 C25        -0.3190    8.4840    3.0480 c3        1 MOL     -0.239926
     75 O14        -0.6320    9.0830    0.7660 oh        1 MOL     -0.660439
     76 H29         1.1250    6.3920    1.4440 hn        1 MOL      0.332434
     77 H30        -1.6730    6.6790    0.3790 h1        1 MOL      0.156667
     78 H31        -2.0820    8.3480    1.9820 h1        1 MOL      0.017807
     79 H32         0.3170    9.0640    0.6650 ho        1 MOL      0.399456
     80 H33        -0.8300    8.1720    3.9660 hc        1 MOL      0.043626
     81 H34         0.6320    7.9520    2.9490 hc        1 MOL      0.043626
     82 H35        -0.1280    9.5630    2.9950 hc        1 MOL      0.043626
     83 N9         -0.9870    4.7110    2.3950 n         1 MOL     -0.077249
     84 C26        -1.5430    3.4070    2.8440 c3        1 MOL     -0.188364
     85 C27        -1.1810    2.2760    1.9190 c         1 MOL      0.555118
     86 O15        -0.2010    2.3030    1.1520 o         1 MOL     -0.485479
     87 C28        -1.3400    3.0290    4.3050 c3        1 MOL      0.173934
     88 C29         0.2320    2.8390    4.4460 c3        1 MOL     -0.027018
     89 C30        -1.8780    4.0830    5.1680 c3        1 MOL     -0.296201
     90 C31         0.6910    2.3890    5.7940 c3        1 MOL     -0.178048
     91 H36        -0.0830    4.5350    1.9750 hn        1 MOL      0.115340
     92 H37        -2.6060    3.5480    2.6690 h1        1 MOL      0.091314
     93 H38        -1.9020    2.1330    4.5690 hc        1 MOL      0.040940
     94 H39         0.6370    3.8300    4.2430 hc        1 MOL      0.057889
     95 H40         0.5360    2.0470    3.7500 hc        1 MOL      0.057889
     96 H41        -1.2450    4.9630    5.0850 hc        1 MOL      0.071833
     97 H42        -2.9400    4.2330    4.9620 hc        1 MOL      0.071833
     98 H43        -1.6180    3.8190    6.1950 hc        1 MOL      0.071833
     99 H44         1.7460    2.1370    5.8070 hc        1 MOL      0.039533
    100 H45         0.5720    3.1930    6.5190 hc        1 MOL      0.039533
    101 H46        -0.0250    1.6070    6.0490 hc        1 MOL      0.039533
    102 N10        -1.9270    1.2010    1.9610 n         1 MOL     -0.653885
    103 C32        -1.9180    0.0240    1.0090 c3        1 MOL      0.584513
    104 C33        -3.2950   -0.3400    0.4160 c         1 MOL      0.264797
    105 O16        -3.7050   -1.5020    0.3730 o         1 MOL     -0.352551
    106 C34        -1.1320   -1.1250    1.6190 c3        1 MOL     -0.651098
    107 C35        -0.6210   -2.0840    0.5760 c         1 MOL      0.853566
    108 O17        -0.1020   -3.1740    0.8970 o         1 MOL     -0.728465
    109 O18        -0.5160   -1.8350   -0.6620 o         1 MOL     -0.728465
    110 H47        -2.6860    1.1780    2.6260 hn        1 MOL      0.276415
    111 H48        -1.3730    0.3070    0.1050 h1        1 MOL     -0.034364
    112 H49        -1.7710   -1.6470    2.3330 hc        1 MOL      0.181467
    113 H50        -0.3180   -0.6800    2.1950 hc        1 MOL      0.181467
    114 N11        -4.0370    0.7270    0.0840 n         1 MOL     -0.405852
    115 C36        -5.3530    0.5950   -0.5080 c3        1 MOL      0.205104
    116 C37        -6.2440   -0.4900    0.1980 c         1 MOL      0.186129
    117 O19        -6.3850   -0.4920    1.4250 o         1 MOL     -0.474812
    118 C38        -5.9470    1.9900   -0.6930 c3        1 MOL     -0.248941
    119 C39        -7.3680    1.8290   -1.2110 ca        1 MOL      0.028715
    120 C40        -7.5960    1.7270   -2.5870 ca        1 MOL     -0.135099
    121 C41        -8.4280    1.5280   -0.3240 ca        1 MOL     -0.135099
    122 C42        -8.9280    1.4410   -3.1030 ca        1 MOL     -0.158356
    123 C43        -9.6680    1.2100   -0.7670 ca        1 MOL     -0.158356
    124 C44        -9.8660    1.1390   -2.1520 ca        1 MOL     -0.031807
    125 H51        -3.6610    1.6570    0.1510 hn        1 MOL      0.273359
    126 H52        -5.1070    0.2050   -1.4960 h1        1 MOL      0.052420
    127 H53        -5.3850    2.4820   -1.4930 hc        1 MOL      0.113236
    128 H54        -5.9940    2.6150    0.1960 hc        1 MOL      0.113236
    129 H55        -6.7700    1.9010   -3.2550 ha        1 MOL      0.127973
    130 H56        -8.2560    1.6600    0.7420 ha        1 MOL      0.127973
    131 H57        -9.2450    1.5330   -4.1240 ha        1 MOL      0.125971
    132 H58       -10.5110    1.1310   -0.0970 ha        1 MOL      0.125971
    133 H59       -10.8740    1.0400   -2.5040 ha        1 MOL      0.072915
    134 N12        -6.8630   -1.4140   -0.5800 n         1 MOL      0.153541
    135 C45        -7.7420   -2.4370    0.0120 c3        1 MOL      0.098968
    136 C46        -7.0210   -3.3900    0.9920 c         1 MOL      0.287351
    137 O20        -7.7240   -4.1620    1.7330 o         1 MOL     -0.556057
    138 C47        -8.3420   -3.0810   -1.2150 c3        1 MOL     -0.106824
    139 C48        -8.1570   -2.0560   -2.3100 c3        1 MOL     -0.096899
    140 C49        -6.7650   -1.6110   -2.0090 c3        1 MOL      0.034489
    141 H60        -8.4590   -1.9130    0.6400 h1        1 MOL      0.042874
    142 H61        -7.8910   -4.0630   -1.4040 hc        1 MOL      0.055035
    143 H62        -9.3960   -3.3290   -1.0480 hc        1 MOL      0.055035
    144 H63        -8.1340   -2.5010   -3.3090 hc        1 MOL      0.029298
    145 H64        -8.8910   -1.2650   -2.1790 hc        1 MOL      0.029298
    146 H65        -6.1120   -2.4700   -2.0860 h1        1 MOL      0.010216
    147 H66        -6.5620   -0.6680   -2.5180 h1        1 MOL      0.010216
    148 N13        -5.7080   -3.3540    1.0680 n         1 MOL     -0.095049
    149 C50        -4.8050   -4.1180    1.9700 c3        1 MOL     -0.283959
    150 C51        -4.4820   -3.4990    3.2860 c         1 MOL      0.404153
    151 O21        -3.6310   -4.0730    3.9790 o         1 MOL     -0.531585
    152 C52        -3.5530   -4.6570    1.3210 c3        1 MOL      0.296519
    153 C53        -3.7090   -5.2000   -0.1140 c3        1 MOL     -0.118833
    154 C54        -2.3620   -5.6000   -0.7010 c         1 MOL      0.690893
    155 O22        -1.6830   -4.7770   -1.3120 o         1 MOL     -0.750891
    156 O23        -1.8990   -6.7660   -0.4960 o         1 MOL     -0.750891
    157 H67        -5.2200   -2.7330    0.4350 hn        1 MOL      0.088169
    158 H68        -5.2990   -5.0500    2.2580 h1        1 MOL      0.154586
    159 H69        -3.1940   -5.4610    1.9590 hc        1 MOL     -0.014672
    160 H70        -2.9290   -3.7890    1.0960 hc        1 MOL     -0.014672
    161 H71        -4.0150   -4.3480   -0.7180 hc        1 MOL      0.001691
    162 H72        -4.4680   -5.9880   -0.1950 hc        1 MOL      0.001691
    163 N14        -5.0550   -2.3520    3.6460 n         1 MOL     -0.099643
    164 C55        -4.9000   -1.7110    4.9170 c3        1 MOL     -0.150637
    165 H73        -4.1600   -2.2510    5.5070 h1        1 MOL      0.064192
    166 H74        -4.5670   -0.6840    4.7680 h1        1 MOL      0.064192
    167 H75        -5.8540   -1.7110    5.4430 h1        1 MOL      0.064192
    168 H76        -5.6220   -1.9030    2.9440 hn        1 MOL      0.187877
    169 Ca1         0.8330   -3.8330   -1.5520 Ca        1 MOL      1.767004
    170 O24         2.9810   -4.2720    0.1400 oh        1 MOL     -0.823659
    171 H77         3.4130   -3.5680    0.6200 ho        1 MOL      0.394816
    172 H78         3.5840   -5.0160    0.2000 ho        1 MOL      0.394816
    173 O25         0.6240   -6.4810   -0.6940 oh        1 MOL     -0.823659
    174 H79        -0.3100   -6.6640   -0.7350 ho        1 MOL      0.394816
    175 H80         1.0360   -7.3520   -0.7410 ho        1 MOL      0.394816
    176 O26         0.6210   -5.6270   -3.5330 oh        1 MOL     -0.823659
    177 H81         0.0150   -5.6220   -4.2750 ho        1 MOL      0.394816
    178 H82         0.4900   -6.4810   -3.1130 ho        1 MOL      0.394816
    179 O27        -0.1570   -2.8140   -3.9310 oh        1 MOL     -0.823659
    180 H83        -0.9820   -3.0500   -4.3530 ho        1 MOL      0.394816
    181 H84         0.4960   -2.8840   -4.6270 ho        1 MOL      0.394816
    182 O28         2.1890   -1.4160   -1.1920 oh        1 MOL     -0.823659
    183 H85         2.4620   -1.3810   -0.2710 ho        1 MOL      0.394816
    184 H86         1.8390   -0.5430   -1.3670 ho        1 MOL      0.394816
@<TRIPOS>BOND
     1    1    2 1   
     2    1    4 1   
     3    1    5 1   
     4    1    6 1   
     5    2    3 2   
     6    2    7 1   
     7    7    8 1   
     8    7   15 1   
     9    8    9 1   
    10    8   11 1   
    11    8   16 1   
    12    9   10 2   
    13    9   19 1   
    14   11   12 1   
    15   11   17 1   
    16   11   18 1   
    17   12   13 1   
    18   12   14 1   
    19   19   20 1   
    20   19   24 1   
    21   20   21 1   
    22   20   23 1   
    23   20   25 1   
    24   21   22 2   
    25   21   29 1   
    26   23   26 1   
    27   23   27 1   
    28   23   28 1   
    29   29   30 1   
    30   29   37 1   
    31   30   31 1   
    32   30   33 1   
    33   30   38 1   
    34   31   32 2   
    35   31   41 1   
    36   33   34 1   
    37   33   39 1   
    38   33   40 1   
    39   34   35 1   
    40   34   36 1   
    41   41   42 1   
    42   41   45 1   
    43   42   43 1   
    44   42   46 1   
    45   42   47 1   
    46   43   44 2   
    47   43   48 1   
    48   48   49 1   
    49   48   56 1   
    50   49   50 1   
    51   49   52 1   
    52   49   57 1   
    53   50   51 2   
    54   50   62 1   
    55   52   53 1   
    56   52   58 1   
    57   52   59 1   
    58   53   54 1   
    59   53   55 2   
    60   54   60 1   
    61   54   61 1   
    62   62   63 1   
    63   62   66 1   
    64   63   64 1   
    65   63   67 1   
    66   63   68 1   
    67   64   65 2   
    68   64   69 1   
    69   69   70 1   
    70   69   76 1   
    71   70   71 1   
    72   70   73 1   
    73   70   77 1   
    74   71   72 2   
    75   71   83 1   
    76   73   74 1   
    77   73   75 1   
    78   73   78 1   
    79   74   80 1   
    80   74   81 1   
    81   74   82 1   
    82   75   79 1   
    83   83   84 1   
    84   83   91 1   
    85   84   85 1   
    86   84   87 1   
    87   84   92 1   
    88   85   86 2   
    89   85  102 1   
    90   87   88 1   
    91   87   89 1   
    92   87   93 1   
    93   88   90 1   
    94   88   94 1   
    95   88   95 1   
    96   89   96 1   
    97   89   97 1   
    98   89   98 1   
    99   90   99 1   
   100   90  100 1   
   101   90  101 1   
   102  102  103 1   
   103  102  110 1   
   104  103  104 1   
   105  103  106 1   
   106  103  111 1   
   107  104  105 2   
   108  104  114 1   
   109  106  107 1   
   110  106  112 1   
   111  106  113 1   
   112  107  108 1   
   113  107  109 1   
   114  114  115 1   
   115  114  125 1   
   116  115  116 1   
   117  115  118 1   
   118  115  126 1   
   119  116  117 2   
   120  116  134 1   
   121  118  119 1   
   122  118  127 1   
   123  118  128 1   
   124  119  120 ar  
   125  119  121 ar  
   126  120  122 ar  
   127  120  129 1   
   128  121  123 ar  
   129  121  130 1   
   130  122  124 ar  
   131  122  131 1   
   132  123  124 ar  
   133  123  132 1   
   134  124  133 1   
   135  134  135 1   
   136  134  140 1   
   137  135  136 1   
   138  135  138 1   
   139  135  141 1   
   140  136  137 2   
   141  136  148 1   
   142  138  139 1   
   143  138  142 1   
   144  138  143 1   
   145  139  140 1   
   146  139  144 1   
   147  139  145 1   
   148  140  146 1   
   149  140  147 1   
   150  148  149 1   
   151  148  157 1   
   152  149  150 1   
   153  149  152 1   
   154  149  158 1   
   155  150  151 2   
   156  150  163 1   
   157  152  153 1   
   158  152  159 1   
   159  152  160 1   
   160  153  154 1   
   161  153  161 1   
   162  153  162 1   
   163  154  155 1   
   164  154  156 1   
   165  163  164 1   
   166  163  168 1   
   167  164  165 1   
   168  164  166 1   
   169  164  167 1   
   170  170  171 1   
   171  170  172 1   
   172  173  174 1   
   173  173  175 1   
   174  176  177 1   
   175  176  178 1   
   176  179  180 1   
   177  179  181 1   
   178  182  183 1   
   179  182  184 1   
@<TRIPOS>SUBSTRUCTURE
     1 MOL         1 TEMP              0 ****  ****    0 ROOT
