@<TRIPOS>MOLECULE
MOL
  185   180     1     0     0
SMALL
resp


@<TRIPOS>ATOM
      1 C1         -6.0210    1.2500   -3.5330 c3        1 MOL     -0.472813
      2 C2         -6.5870    1.3270   -2.0500 c         1 MOL      0.519520
      3 O1         -5.9490    1.1570   -0.9810 o         1 MOL     -0.405146
      4 H1         -6.8330    1.0130   -4.2190 hc        1 MOL      0.144184
      5 H2         -5.5830    2.2100   -3.8060 hc        1 MOL      0.144184
      6 H3         -5.2580    0.4730   -3.5910 hc        1 MOL      0.144184
      7 N1         -7.9170    1.5520   -1.8790 n         1 MOL     -0.484483
      8 C3         -8.7250    1.6260   -0.6700 c3        1 MOL      0.151081
      9 C4         -8.6210    0.3740    0.1930 c         1 MOL      0.424325
     10 O2         -8.8770    0.3630    1.4320 o         1 MOL     -0.511564
     11 C5         -8.6240    2.9530    0.1850 c3        1 MOL     -0.277149
     12 C6         -8.6680    4.1880   -0.6640 c         1 MOL      0.787452
     13 O3         -7.6790    4.9190   -0.7830 o         1 MOL     -0.689085
     14 O4         -9.7360    4.4920   -1.2390 o         1 MOL     -0.689085
     15 H4         -8.4260    1.7330   -2.7350 hn        1 MOL      0.294035
     16 H5         -9.7730    1.7090   -0.9530 h1        1 MOL      0.036218
     17 H6         -7.6600    2.9000    0.6800 hc        1 MOL      0.078791
     18 H7         -9.4880    2.9540    0.8590 hc        1 MOL      0.078791
     19 N2         -8.1890   -0.7100   -0.4720 n         1 MOL     -0.417868
     20 C7         -8.0230   -1.9780    0.2610 c3        1 MOL      0.170450
     21 C8         -6.5320   -2.3170    0.5370 c         1 MOL      0.491932
     22 O5         -6.3180   -3.4380    1.0440 o         1 MOL     -0.577952
     23 C9         -8.6950   -3.1140   -0.5230 c3        1 MOL     -0.045473
     24 C10       -10.2080   -2.8640   -0.4360 c3        1 MOL     -0.123691
     25 C11       -10.9170   -4.1050   -1.1510 c3        1 MOL      0.164138
     26 C12       -12.4330   -3.8680   -1.1980 c3        1 MOL      0.034660
     27 N3        -13.1480   -5.0800   -1.6890 n4        1 MOL     -0.317028
     28 H8         -8.0270   -0.6260   -1.4600 hn        1 MOL      0.235759
     29 H9         -8.4530   -1.9520    1.2530 h1        1 MOL      0.096132
     30 H10        -8.4660   -4.1010   -0.1310 hc        1 MOL      0.018862
     31 H11        -8.4150   -3.1200   -1.5840 hc        1 MOL      0.018862
     32 H12       -10.5210   -1.9630   -0.9680 hc        1 MOL      0.044046
     33 H13       -10.5470   -2.9740    0.5880 hc        1 MOL      0.044046
     34 H14       -10.6580   -5.0260   -0.6260 hc        1 MOL     -0.016552
     35 H15       -10.6180   -4.1880   -2.1990 hc        1 MOL     -0.016552
     36 H16       -12.6020   -2.9650   -1.7650 hx        1 MOL      0.067989
     37 H17       -12.7630   -3.7320   -0.1680 hx        1 MOL      0.067989
     38 H18       -13.3040   -5.7170   -0.9110 hn        1 MOL      0.291666
     39 H19       -14.0450   -4.7740   -2.0360 hn        1 MOL      0.291666
     40 H20       -12.6150   -5.5450   -2.4040 hn        1 MOL      0.291666
     41 N4         -5.5490   -1.4640    0.2360 n         1 MOL     -0.339705
     42 C13        -4.0930   -1.6800    0.4220 c3        1 MOL     -0.248427
     43 C14        -3.7740   -2.0460    1.8800 c         1 MOL      0.608360
     44 O6         -4.1790   -1.3720    2.8310 o         1 MOL     -0.496381
     45 C15        -3.3320   -0.4740    0.0360 c3        1 MOL      0.109368
     46 C16        -1.8250   -0.7650   -0.1700 c         1 MOL      0.465259
     47 O7         -1.4000   -1.0350   -1.3110 o         1 MOL     -0.695608
     48 O8         -1.0660   -0.6840    0.8530 o         1 MOL     -0.695608
     49 H21        -5.7760   -0.6000   -0.2200 hn        1 MOL      0.214667
     50 H22        -3.8890   -2.4710   -0.3040 h1        1 MOL      0.110906
     51 H23        -3.4680    0.4220    0.6580 hc        1 MOL      0.082879
     52 H24        -3.6970   -0.2340   -0.9600 hc        1 MOL      0.082879
     53 N5         -2.9930   -3.1150    2.1010 n         1 MOL     -0.258886
     54 C17        -2.5810   -3.6590    3.4000 c3        1 MOL     -0.250488
     55 C18        -1.4860   -2.8860    4.1610 c         1 MOL      0.600646
     56 O9         -1.4100   -3.1670    5.3200 o         1 MOL     -0.563295
     57 H25        -2.6330   -3.5780    1.2750 hn        1 MOL      0.199483
     58 H26        -2.2570   -4.6880    3.2870 h1        1 MOL      0.128715
     59 H27        -3.4220   -3.5670    4.0890 h1        1 MOL      0.128715
     60 N6         -0.7850   -1.9560    3.5420 n         1 MOL     -0.394403
     61 C19         0.1080   -1.0630    4.2320 c3        1 MOL      0.045002
     62 C20        -0.2500    0.4270    4.0700 c         1 MOL      0.499855
     63 O10         0.4160    1.2840    4.6160 o         1 MOL     -0.548536
     64 C21         1.6250   -1.3590    4.0260 c3        1 MOL     -0.308895
     65 C22         2.2570   -0.8690    2.7100 c         1 MOL      0.724388
     66 N7          3.0910    0.1370    2.7760 n         1 MOL     -0.796787
     67 O11         2.1220   -1.5690    1.7260 o         1 MOL     -0.643762
     68 H28        -0.9710   -1.8730    2.5500 hn        1 MOL      0.427771
     69 H29        -0.0280   -1.1750    5.3100 h1        1 MOL      0.113269
     70 H30         1.8210   -2.4360    4.0410 hc        1 MOL      0.105405
     71 H31         2.1560   -0.9500    4.8860 hc        1 MOL      0.105405
     72 H32         3.2330    0.5890    3.6690 hn        1 MOL      0.361618
     73 H33         3.7200    0.3050    2.0050 hn        1 MOL      0.361618
     74 N8         -1.3810    0.6920    3.3230 n         1 MOL     -0.110176
     75 C23        -2.1090    1.9440    3.0450 c3        1 MOL     -0.256545
     76 C24        -1.4130    2.7860    1.9420 c         1 MOL      0.627779
     77 O12        -1.5220    3.9910    1.9610 o         1 MOL     -0.545397
     78 H34        -1.5470   -0.0920    2.7030 hn        1 MOL     -0.133934
     79 H35        -2.2850    2.5710    3.9100 h1        1 MOL      0.155486
     80 H36        -3.0930    1.6660    2.6780 h1        1 MOL      0.155486
     81 N9         -0.5520    2.1910    1.0840 n         1 MOL     -0.498906
     82 C25         0.1270    2.8220   -0.0530 c3        1 MOL      0.441651
     83 C26         1.4680    2.1120   -0.3540 c         1 MOL      0.011919
     84 O13         1.5780    0.9040   -0.1330 o         1 MOL     -0.128159
     85 C27        -0.7350    2.7720   -1.3790 c3        1 MOL      0.035623
     86 C28        -1.9650    3.6530   -1.3960 ca        1 MOL     -0.248883
     87 C29        -1.8580    5.0270   -1.7780 ca        1 MOL     -0.019659
     88 C30        -3.2340    3.2400   -0.9090 ca        1 MOL     -0.019659
     89 C31        -2.9950    5.9170   -1.7970 ca        1 MOL     -0.342297
     90 C32        -4.3910    4.0520   -0.9970 ca        1 MOL     -0.342297
     91 C33        -4.2560    5.3860   -1.3430 ca        1 MOL      0.467368
     92 O14        -5.3590    6.1850   -1.3580 oh        1 MOL     -0.535485
     93 H37        -0.4070    1.2000    1.2090 hn        1 MOL      0.170747
     94 H38         0.2120    3.8620    0.2650 h1        1 MOL      0.010684
     95 H39        -0.9630    1.7580   -1.6980 hc        1 MOL      0.024840
     96 H40        -0.1080    3.1670   -2.1790 hc        1 MOL      0.024840
     97 H41        -0.8760    5.4340   -1.9550 ha        1 MOL      0.062274
     98 H42        -3.4340    2.2120   -0.6500 ha        1 MOL      0.062274
     99 H43        -2.9230    6.9560   -2.0670 ha        1 MOL      0.161522
    100 H44        -5.3440    3.6840   -0.6500 ha        1 MOL      0.161522
    101 H45        -6.0510    5.6030   -1.0380 ho        1 MOL      0.399274
    102 N10         2.4660    2.8430   -0.8780 n         1 MOL     -0.387587
    103 C34         3.7980    2.3230   -1.2090 c3        1 MOL      0.007229
    104 C35         4.5700    1.9710    0.0580 c         1 MOL      0.537950
    105 O15         4.8480    0.7810    0.3200 o         1 MOL     -0.542438
    106 C36         4.5770    3.2500   -2.1720 c3        1 MOL      0.237358
    107 C37         3.6600    3.7890   -3.3030 c3        1 MOL     -0.074485
    108 C38         5.9250    2.6220   -2.6500 c3        1 MOL     -0.412770
    109 C39         3.2530    2.7380   -4.4460 c3        1 MOL     -0.311696
    110 H46         2.4290    3.8580   -0.8980 hn        1 MOL      0.252561
    111 H47         3.6430    1.3380   -1.6640 h1        1 MOL      0.024836
    112 H48         4.8870    4.1580   -1.6550 hc        1 MOL     -0.079057
    113 H49         4.1980    4.5610   -3.8420 hc        1 MOL      0.050659
    114 H50         2.7800    4.2610   -2.8580 hc        1 MOL      0.050659
    115 H51         6.3090    3.2270   -3.4740 hc        1 MOL      0.112886
    116 H52         6.6490    2.6120   -1.8390 hc        1 MOL      0.112886
    117 H53         5.6700    1.6280   -3.0320 hc        1 MOL      0.112886
    118 H54         2.6590    3.2340   -5.2210 hc        1 MOL      0.095539
    119 H55         4.1370    2.2980   -4.8980 hc        1 MOL      0.095539
    120 H56         2.6550    2.0230   -3.8830 hc        1 MOL      0.095539
    121 N11         4.9820    2.9810    0.8650 n         1 MOL     -0.201930
    122 C40         5.6520    2.7840    2.1400 c3        1 MOL     -0.339230
    123 C41         7.0970    2.1980    2.0100 c         1 MOL      0.742417
    124 O16         7.5160    1.4950    2.8610 o         1 MOL     -0.523212
    125 C42         5.5420    4.0150    3.0570 c3        1 MOL      0.265940
    126 O17         6.1960    5.1570    2.5280 oh        1 MOL     -0.611431
    127 H57         4.9040    3.9460    0.5770 hn        1 MOL      0.215402
    128 H58         5.1780    1.9800    2.7110 h1        1 MOL      0.103738
    129 H59         5.9200    3.8000    4.0590 h1        1 MOL      0.054640
    130 H60         4.5100    4.3640    3.0750 h1        1 MOL      0.054640
    131 H61         5.6930    5.5390    1.7970 ho        1 MOL      0.400323
    132 N12         7.7590    2.5180    0.9190 n         1 MOL     -0.444026
    133 C43         9.0520    2.0610    0.3530 c3        1 MOL      0.161290
    134 C44         9.0470    0.5540    0.3480 c         1 MOL      0.446259
    135 O18        10.0910   -0.0840    0.4830 o         1 MOL     -0.513515
    136 C45        10.1450    2.8420    1.1800 c3        1 MOL     -0.335085
    137 H62         7.3080    3.2490    0.4070 hn        1 MOL      0.222538
    138 H63         9.3200    2.5350   -0.5860 h1        1 MOL      0.094872
    139 H64        10.1300    2.4430    2.1860 hc        1 MOL      0.109896
    140 H65        11.1230    2.6620    0.7330 hc        1 MOL      0.109896
    141 H66         9.9470    3.9190    1.1440 hc        1 MOL      0.109896
    142 N13         7.9380   -0.2240    0.1520 n         1 MOL     -0.553173
    143 C46         7.8650   -1.6330    0.2810 c3        1 MOL      0.666483
    144 C47         7.0640   -2.2170   -0.8570 c         1 MOL      0.301346
    145 O19         6.3170   -1.5640   -1.5610 o         1 MOL     -0.400922
    146 C48         7.2090   -1.9910    1.6040 c3        1 MOL     -0.577006
    147 H67         7.0680    0.2750   -0.0130 hn        1 MOL      0.130618
    148 H68         8.8200   -2.1560    0.2050 h1        1 MOL     -0.066735
    149 H69         7.3850   -3.0280    1.8870 hc        1 MOL      0.158721
    150 H70         7.5590   -1.3040    2.3710 hc        1 MOL      0.158721
    151 H71         6.1650   -1.6770    1.5260 hc        1 MOL      0.158721
    152 N14         7.1960   -3.5490   -0.9320 n         1 MOL     -0.484993
    153 C49         6.5720   -4.3740   -1.9840 c3        1 MOL     -0.112619
    154 C50         7.0060   -4.0000   -3.4090 c         1 MOL      0.427279
    155 O20         6.2620   -4.2600   -4.3990 o         1 MOL     -0.499120
    156 C51         5.0350   -4.3870   -1.8050 c3        1 MOL      0.264142
    157 C52         4.5910   -4.7580   -0.3660 c3        1 MOL      0.046483
    158 C53         3.0880   -4.7510   -0.1740 c         1 MOL      0.675090
    159 O21         2.4070   -3.8020   -0.5400 o         1 MOL     -0.718245
    160 O22         2.5530   -5.8360    0.1790 o         1 MOL     -0.718245
    161 H72         7.7340   -4.0580   -0.2500 hn        1 MOL      0.327179
    162 H73         6.9130   -5.4140   -1.8960 h1        1 MOL      0.123995
    163 H74         4.6050   -5.1890   -2.4000 hc        1 MOL     -0.052037
    164 H75         4.6180   -3.4130   -2.0580 hc        1 MOL     -0.052037
    165 H76         4.9860   -3.9380    0.2300 hc        1 MOL     -0.064780
    166 H77         5.0620   -5.6950   -0.0810 hc        1 MOL     -0.064780
    167 N15         8.1440   -3.2940   -3.6340 n         1 MOL     -0.357066
    168 C54         8.3680   -2.5570   -4.8570 c3        1 MOL      0.010909
    169 H78         7.7000   -2.9290   -5.6330 h1        1 MOL      0.051324
    170 H79         8.1690   -1.4990   -4.6850 h1        1 MOL      0.051324
    171 H80         9.4020   -2.6850   -5.1760 h1        1 MOL      0.051324
    172 H81         8.6850   -3.0410   -2.8240 hn        1 MOL      0.250767
    173 Ca1         1.0590   -1.6730   -0.8560 Ca        1 MOL      1.706892
    174 O23         0.0680   -3.5410    0.7840 oh        1 MOL     -0.834365
    175 H82        -0.2340   -4.1670    0.1340 ho        1 MOL      0.410073
    176 H83         0.6130   -4.0480    1.3800 ho        1 MOL      0.410073
    177 O24         1.0730   -2.9390   -3.2880 oh        1 MOL     -0.834365
    178 H84         0.4660   -2.6610   -3.9760 ho        1 MOL      0.410073
    179 H85         1.2550   -3.8590   -3.4860 ho        1 MOL      0.410073
    180 O25         1.5460    0.1210   -2.8370 oh        1 MOL     -0.834365
    181 H86         2.4420    0.0080   -3.1640 ho        1 MOL      0.410073
    182 H87         1.1740    0.8140   -3.3900 ho        1 MOL      0.410073
    183 O26         3.7650   -0.9500   -1.3080 oh        1 MOL     -0.834365
    184 H88         4.1540   -0.2750   -0.7370 ho        1 MOL      0.410073
    185 H89         4.4840   -1.5540   -1.4870 ho        1 MOL      0.410073
@<TRIPOS>BOND
     1    1    2 1   
     2    1    4 1   
     3    1    5 1   
     4    1    6 1   
     5    2    3 2   
     6    2    7 1   
     7    7    8 1   
     8    7   15 1   
     9    8    9 1   
    10    8   11 1   
    11    8   16 1   
    12    9   10 2   
    13    9   19 1   
    14   11   12 1   
    15   11   17 1   
    16   11   18 1   
    17   12   13 1   
    18   12   14 1   
    19   19   20 1   
    20   19   28 1   
    21   20   21 1   
    22   20   23 1   
    23   20   29 1   
    24   21   22 2   
    25   21   41 1   
    26   23   24 1   
    27   23   30 1   
    28   23   31 1   
    29   24   25 1   
    30   24   32 1   
    31   24   33 1   
    32   25   26 1   
    33   25   34 1   
    34   25   35 1   
    35   26   27 1   
    36   26   36 1   
    37   26   37 1   
    38   27   38 1   
    39   27   39 1   
    40   27   40 1   
    41   41   42 1   
    42   41   49 1   
    43   42   43 1   
    44   42   45 1   
    45   42   50 1   
    46   43   44 2   
    47   43   53 1   
    48   45   46 1   
    49   45   51 1   
    50   45   52 1   
    51   46   47 1   
    52   46   48 1   
    53   53   54 1   
    54   53   57 1   
    55   54   55 1   
    56   54   58 1   
    57   54   59 1   
    58   55   56 2   
    59   55   60 1   
    60   60   61 1   
    61   60   68 1   
    62   61   62 1   
    63   61   64 1   
    64   61   69 1   
    65   62   63 2   
    66   62   74 1   
    67   64   65 1   
    68   64   70 1   
    69   64   71 1   
    70   65   66 1   
    71   65   67 2   
    72   66   72 1   
    73   66   73 1   
    74   74   75 1   
    75   74   78 1   
    76   75   76 1   
    77   75   79 1   
    78   75   80 1   
    79   76   77 2   
    80   76   81 1   
    81   81   82 1   
    82   81   93 1   
    83   82   83 1   
    84   82   85 1   
    85   82   94 1   
    86   83   84 2   
    87   83  102 1   
    88   85   86 1   
    89   85   95 1   
    90   85   96 1   
    91   86   87 ar  
    92   86   88 ar  
    93   87   89 ar  
    94   87   97 1   
    95   88   90 ar  
    96   88   98 1   
    97   89   91 ar  
    98   89   99 1   
    99   90   91 ar  
   100   90  100 1   
   101   91   92 1   
   102   92  101 1   
   103  102  103 1   
   104  102  110 1   
   105  103  104 1   
   106  103  106 1   
   107  103  111 1   
   108  104  105 2   
   109  104  121 1   
   110  106  107 1   
   111  106  108 1   
   112  106  112 1   
   113  107  109 1   
   114  107  113 1   
   115  107  114 1   
   116  108  115 1   
   117  108  116 1   
   118  108  117 1   
   119  109  118 1   
   120  109  119 1   
   121  109  120 1   
   122  121  122 1   
   123  121  127 1   
   124  122  123 1   
   125  122  125 1   
   126  122  128 1   
   127  123  124 2   
   128  123  132 1   
   129  125  126 1   
   130  125  129 1   
   131  125  130 1   
   132  126  131 1   
   133  132  133 1   
   134  132  137 1   
   135  133  134 1   
   136  133  136 1   
   137  133  138 1   
   138  134  135 2   
   139  134  142 1   
   140  136  139 1   
   141  136  140 1   
   142  136  141 1   
   143  142  143 1   
   144  142  147 1   
   145  143  144 1   
   146  143  146 1   
   147  143  148 1   
   148  144  145 2   
   149  144  152 1   
   150  146  149 1   
   151  146  150 1   
   152  146  151 1   
   153  152  153 1   
   154  152  161 1   
   155  153  154 1   
   156  153  156 1   
   157  153  162 1   
   158  154  155 2   
   159  154  167 1   
   160  156  157 1   
   161  156  163 1   
   162  156  164 1   
   163  157  158 1   
   164  157  165 1   
   165  157  166 1   
   166  158  159 1   
   167  158  160 1   
   168  167  168 1   
   169  167  172 1   
   170  168  169 1   
   171  168  170 1   
   172  168  171 1   
   173  174  175 1   
   174  174  176 1   
   175  177  178 1   
   176  177  179 1   
   177  180  181 1   
   178  180  182 1   
   179  183  184 1   
   180  183  185 1   
@<TRIPOS>SUBSTRUCTURE
     1 MOL         1 TEMP              0 ****  ****    0 ROOT
