@<TRIPOS>MOLECULE
MOL
  178   175     1     0     0
SMALL
resp


@<TRIPOS>ATOM
      1 C1          1.0540    6.3410   -2.1620 c3        1 MOL     -0.389807
      2 C2          2.4620    5.9970   -1.5610 c         1 MOL      0.766327
      3 O1          2.8120    6.4050   -0.4500 o         1 MOL     -0.600569
      4 H1          1.0520    7.3730   -2.5150 hc        1 MOL      0.096540
      5 H2          0.8410    5.6730   -2.9960 hc        1 MOL      0.096540
      6 H3          0.2900    6.2190   -1.3940 hc        1 MOL      0.096540
      7 N1          3.2570    5.1490   -2.2540 n         1 MOL     -0.742876
      8 C3          4.6240    4.7910   -1.7950 c3        1 MOL      0.280063
      9 C4          4.5860    3.8600   -0.5370 c         1 MOL      0.565313
     10 O2          3.9630    2.7670   -0.5770 o         1 MOL     -0.542302
     11 C5          5.4700    4.2610   -2.9480 c3        1 MOL     -0.242109
     12 C6          6.9770    4.1200   -2.5960 c         1 MOL      0.694318
     13 O3          7.4780    4.6350   -1.5330 o         1 MOL     -0.712995
     14 O4          7.7570    3.6300   -3.4580 o         1 MOL     -0.712995
     15 H4          3.0230    4.7980   -3.1730 hn        1 MOL      0.350817
     16 H5          5.1810    5.7020   -1.5550 h1        1 MOL      0.022753
     17 H6          5.2620    4.8330   -3.8420 hc        1 MOL      0.026759
     18 H7          5.0130    3.3040   -3.2280 hc        1 MOL      0.026759
     19 N2          5.2520    4.2140    0.5700 n         1 MOL     -0.488197
     20 C7          5.4690    3.4560    1.7660 c3        1 MOL      0.436541
     21 C8          4.1550    3.3280    2.6260 c         1 MOL      0.376863
     22 O5          3.2980    4.1670    2.6670 o         1 MOL     -0.497503
     23 C9          6.5660    4.0790    2.5300 c3        1 MOL     -0.436519
     24 H8          5.7170    5.1190    0.5650 hn        1 MOL      0.266903
     25 H9          5.7570    2.4460    1.4460 h1        1 MOL      0.025772
     26 H10         7.4250    4.4060    1.9410 hc        1 MOL      0.108597
     27 H11         6.2340    4.9980    3.0160 hc        1 MOL      0.108597
     28 H12         6.9270    3.3830    3.2850 hc        1 MOL      0.108597
     29 N3          3.9790    2.2660    3.4480 n         1 MOL     -0.376966
     30 C10         4.7530    1.0650    3.6180 c3        1 MOL      0.022334
     31 C11         4.6250    0.1360    2.4300 c         1 MOL      0.307324
     32 O6          3.6420    0.1100    1.7300 o         1 MOL     -0.366244
     33 C12         4.4400    0.4610    4.9690 c3        1 MOL     -0.123973
     34 C13         2.9660   -0.0420    5.0790 c         1 MOL      0.675521
     35 O7          2.2200   -0.0180    4.1160 o         1 MOL     -0.680469
     36 O8          2.6000   -0.3400    6.2090 o         1 MOL     -0.680469
     37 H13         3.1820    2.3320    4.0730 hn        1 MOL      0.271538
     38 H14         5.7940    1.3970    3.6390 h1        1 MOL      0.032028
     39 H15         4.7120    1.1930    5.7240 hc        1 MOL      0.026173
     40 H16         5.0240   -0.4280    5.1960 hc        1 MOL      0.026173
     41 N4          5.6750   -0.6750    2.2170 n         1 MOL     -0.458294
     42 C14         5.9370   -1.3550    0.9550 c3        1 MOL     -0.012604
     43 C15         6.5450   -0.4940   -0.1380 c         1 MOL      0.572804
     44 O9          6.6450    0.7430   -0.0710 o         1 MOL     -0.503550
     45 H17         6.4390   -0.6810    2.8660 hn        1 MOL      0.300992
     46 H18         5.0290   -1.8250    0.5850 h1        1 MOL      0.086755
     47 H19         6.5820   -2.2020    1.1900 h1        1 MOL      0.086755
     48 N5          6.9170   -1.1170   -1.2670 n         1 MOL     -0.498976
     49 C16         7.0310   -2.4760   -1.5540 c3        1 MOL     -0.050107
     50 C17         5.7480   -3.1760   -2.0650 c         1 MOL      0.380526
     51 O10         5.7580   -4.4360   -1.9900 o         1 MOL     -0.448731
     52 C18         8.2190   -2.7160   -2.4810 c3        1 MOL      0.068604
     53 C19         8.6730   -4.1470   -2.6590 c         1 MOL      0.475338
     54 N6          9.5920   -4.6140   -1.8630 n         1 MOL     -0.735676
     55 O11         8.1360   -4.8030   -3.5630 o         1 MOL     -0.500812
     56 H20         7.3000   -0.5240   -1.9840 hn        1 MOL      0.309392
     57 H21         7.3780   -2.9510   -0.6360 h1        1 MOL      0.058826
     58 H22         9.0330   -2.0230   -2.2640 hc        1 MOL      0.025888
     59 H23         7.9010   -2.4010   -3.4870 hc        1 MOL      0.025888
     60 H24        10.0710   -4.1720   -1.0900 hn        1 MOL      0.355623
     61 H25         9.8310   -5.5750   -2.0390 hn        1 MOL      0.355623
     62 N7          4.8320   -2.4560   -2.6440 n         1 MOL     -0.178821
     63 C20         3.7490   -3.0680   -3.3690 c3        1 MOL     -0.407112
     64 C21         2.6300   -3.7970   -2.5670 c         1 MOL      0.523968
     65 O12         1.8680   -4.6210   -3.0380 o         1 MOL     -0.542739
     66 H26         4.7940   -1.4650   -2.4260 hn        1 MOL      0.283457
     67 H27         4.0420   -3.8910   -4.0170 h1        1 MOL      0.184613
     68 H28         3.3510   -2.2330   -3.9500 h1        1 MOL      0.184613
     69 N8          2.5780   -3.5370   -1.2320 n         1 MOL     -0.081375
     70 C22         1.7180   -4.1000   -0.1570 c3        1 MOL     -0.088313
     71 C23         0.4120   -3.2330   -0.1120 c         1 MOL      0.270322
     72 O13         0.4390   -2.0190    0.0630 o         1 MOL     -0.503611
     73 C24         2.4750   -3.9890    1.1800 c3        1 MOL      0.232813
     74 C25         3.7840   -4.8240    1.2370 c3        1 MOL     -0.160313
     75 O14         2.8480   -2.6750    1.5700 oh        1 MOL     -0.688453
     76 H29         3.2390   -2.8200   -0.9780 hn        1 MOL      0.158071
     77 H30         1.3960   -5.1290   -0.2950 h1        1 MOL      0.110007
     78 H31         1.8190   -4.3040    1.9910 h1        1 MOL      0.040796
     79 H32         3.2760   -2.8160    2.4210 ho        1 MOL      0.460105
     80 H33         4.0580   -4.9810    0.1890 hc        1 MOL      0.031504
     81 H34         4.5900   -4.2690    1.7150 hc        1 MOL      0.031504
     82 H35         3.6420   -5.6760    1.9000 hc        1 MOL      0.031504
     83 N9         -0.7420   -3.8540   -0.3480 n         1 MOL     -0.177222
     84 C26        -2.0580   -3.2390   -0.3670 c3        1 MOL     -0.005542
     85 C27        -2.6670   -3.1960    1.0390 c         1 MOL      0.300229
     86 O15        -2.5740   -4.1750    1.7810 o         1 MOL     -0.564709
     87 C28        -2.9760   -3.9160   -1.4460 c3        1 MOL      0.100367
     88 C29        -4.2450   -2.9990   -1.5050 c3        1 MOL      0.091389
     89 C30        -2.2120   -3.9310   -2.8100 c3        1 MOL     -0.188607
     90 C31        -5.2040   -3.4080   -2.6220 c3        1 MOL     -0.366857
     91 H36        -0.8320   -4.8510   -0.4400 hn        1 MOL      0.229258
     92 H37        -2.0190   -2.2090   -0.7000 h1        1 MOL      0.154639
     93 H38        -3.2190   -4.9060   -1.0890 hc        1 MOL      0.009393
     94 H39        -3.9810   -1.9460   -1.6170 hc        1 MOL      0.011649
     95 H40        -4.8000   -3.0580   -0.5640 hc        1 MOL      0.011649
     96 H41        -1.1580   -4.2090   -2.7460 hc        1 MOL      0.045823
     97 H42        -2.5620   -4.6870   -3.5140 hc        1 MOL      0.045823
     98 H43        -2.2480   -2.9460   -3.2580 hc        1 MOL      0.045823
     99 H44        -6.0280   -2.6880   -2.5890 hc        1 MOL      0.070854
    100 H45        -4.6160   -3.3780   -3.5370 hc        1 MOL      0.070854
    101 H46        -5.5410   -4.4460   -2.5450 hc        1 MOL      0.070854
    102 N10        -3.1790   -2.0760    1.4400 n         1 MOL      0.034677
    103 C32        -4.1920   -1.8260    2.5080 c3        1 MOL      0.009798
    104 C33        -5.5730   -1.4490    2.0310 c         1 MOL      0.265383
    105 O16        -6.4710   -1.8370    2.8450 o         1 MOL     -0.520628
    106 C34        -3.6050   -0.7370    3.4210 c3        1 MOL     -0.153067
    107 C35        -2.1100   -0.9190    3.7560 c         1 MOL      0.731479
    108 O17        -1.3050   -0.0720    3.3580 o         1 MOL     -0.700855
    109 O18        -1.7920   -1.9380    4.4070 o         1 MOL     -0.700855
    110 H47        -3.1240   -1.2380    0.8670 hn        1 MOL     -0.048684
    111 H48        -4.3600   -2.7200    3.1140 h1        1 MOL      0.103924
    112 H49        -4.1660   -0.8660    4.3360 hc        1 MOL      0.038772
    113 H50        -3.7760    0.2930    3.1080 hc        1 MOL      0.038772
    114 N11        -5.7520   -0.9090    0.8510 n         1 MOL     -0.054626
    115 C36        -7.0170   -0.2140    0.5130 c3        1 MOL      0.170034
    116 C37        -6.8100    1.1210   -0.2230 c         1 MOL      0.173321
    117 O19        -7.1740    1.1510   -1.4220 o         1 MOL     -0.460081
    118 C38        -7.9030   -1.2860   -0.1780 c3        1 MOL     -0.498789
    119 C39        -9.3590   -0.8670   -0.0460 ca        1 MOL      0.307565
    120 C40        -9.9980   -0.7270    1.1810 ca        1 MOL     -0.216799
    121 C41       -10.1970   -0.8600   -1.2090 ca        1 MOL     -0.216799
    122 C42       -11.3410   -0.4320    1.3220 ca        1 MOL     -0.075648
    123 C43       -11.6000   -0.6290   -1.0980 ca        1 MOL     -0.075648
    124 C44       -12.1560   -0.4140    0.1580 ca        1 MOL     -0.205334
    125 H51        -4.9110   -0.7420    0.3170 hn        1 MOL      0.117466
    126 H52        -7.4100   -0.0140    1.5040 h1        1 MOL      0.054357
    127 H53        -7.7390   -2.1840    0.4110 hc        1 MOL      0.167784
    128 H54        -7.6310   -1.4030   -1.2260 hc        1 MOL      0.167784
    129 H55        -9.3320   -0.5960    2.0180 ha        1 MOL      0.115876
    130 H56        -9.8110   -1.0010   -2.2130 ha        1 MOL      0.115876
    131 H57       -11.8430   -0.2880    2.2690 ha        1 MOL      0.099521
    132 H58       -12.2690   -0.6010   -1.9450 ha        1 MOL      0.099521
    133 H59       -13.1430    0.0080    0.2630 ha        1 MOL      0.113867
    134 N12        -6.1390    2.0920    0.4180 n         1 MOL      0.012769
    135 C45        -5.8390    3.4240   -0.0730 c3        1 MOL      0.058776
    136 C46        -5.1480    3.3650   -1.4400 c         1 MOL      0.200330
    137 O20        -5.3850    4.2460   -2.2870 o         1 MOL     -0.469171
    138 C47        -5.0740    4.1230    0.9980 c3        1 MOL     -0.117438
    139 C48        -5.5860    3.4380    2.2180 c3        1 MOL     -0.070147
    140 C49        -5.7940    2.0420    1.7970 c3        1 MOL      0.046236
    141 H60        -6.7760    3.9670   -0.1310 h1        1 MOL      0.058256
    142 H61        -4.0400    3.7630    0.9060 hc        1 MOL      0.075518
    143 H62        -5.1770    5.1990    0.9530 hc        1 MOL      0.075518
    144 H63        -4.8910    3.4210    3.0570 hc        1 MOL      0.032018
    145 H64        -6.5390    3.7750    2.6280 hc        1 MOL      0.032018
    146 H65        -4.9110    1.3960    1.8390 h1        1 MOL      0.028870
    147 H66        -6.5750    1.5880    2.4000 h1        1 MOL      0.028870
    148 N13        -4.3410    2.2910   -1.7190 n         1 MOL      0.126269
    149 C50        -3.6840    2.0310   -2.9940 c3        1 MOL     -0.415777
    150 C51        -4.7760    1.7760   -4.0840 c         1 MOL      0.558625
    151 O21        -4.8410    2.6050   -5.0040 o         1 MOL     -0.561418
    152 C52        -2.7950    0.8350   -2.8790 c3        1 MOL      0.353568
    153 C53        -1.6600    0.9520   -1.7920 c3        1 MOL     -0.428089
    154 C54        -1.9570    0.7720   -0.2930 c         1 MOL      0.701679
    155 O22        -1.0550    0.8250    0.5470 o         1 MOL     -0.609966
    156 O23        -3.1150    0.3560   -0.0170 o         1 MOL     -0.609966
    157 H67        -4.0920    1.6900   -0.9510 hn        1 MOL      0.106748
    158 H68        -3.0400    2.8920   -3.2010 h1        1 MOL      0.144903
    159 H69        -2.4410    0.6230   -3.8780 hc        1 MOL     -0.066918
    160 H70        -3.4070   -0.0550   -2.6890 hc        1 MOL     -0.066918
    161 H71        -1.2040    1.9350   -1.9230 hc        1 MOL      0.083631
    162 H72        -0.9410    0.1460   -1.9430 hc        1 MOL      0.083631
    163 N14        -5.6400    0.8230   -3.9400 n         1 MOL     -0.193129
    164 C55        -6.6990    0.6500   -4.9020 c3        1 MOL     -0.314290
    165 H73        -7.5210    0.1020   -4.4420 h1        1 MOL      0.116976
    166 H74        -7.0540    1.6270   -5.2320 h1        1 MOL      0.116976
    167 H75        -6.3250    0.0910   -5.7590 h1        1 MOL      0.116976
    168 H76        -5.5720    0.2740   -3.1030 hn        1 MOL      0.253759
    169 Ca1         0.9830   -0.2030    1.7840 Ca        1 MOL      1.692343
    170 O24         1.0380    2.3610    2.5720 oh        1 MOL     -0.884319
    171 H77         0.7750    2.2670    3.4880 ho        1 MOL      0.418131
    172 H78         1.8370    2.8820    2.6110 ho        1 MOL      0.418131
    173 O25         0.3510   -2.4770    2.8790 oh        1 MOL     -0.884319
    174 H79        -0.5280   -2.3570    3.2310 ho        1 MOL      0.418131
    175 H80         0.5820   -3.3740    3.1220 ho        1 MOL      0.418131
    176 O26         1.9230    1.1320   -0.7080 oh        1 MOL     -0.884319
    177 H81         2.6020    1.6900   -0.3360 ho        1 MOL      0.418131
    178 H82         1.3550    1.7300   -1.1870 ho        1 MOL      0.418131
@<TRIPOS>BOND
     1    1    2 1   
     2    1    4 1   
     3    1    5 1   
     4    1    6 1   
     5    2    3 2   
     6    2    7 1   
     7    7    8 1   
     8    7   15 1   
     9    8    9 1   
    10    8   11 1   
    11    8   16 1   
    12    9   10 2   
    13    9   19 1   
    14   11   12 1   
    15   11   17 1   
    16   11   18 1   
    17   12   13 1   
    18   12   14 1   
    19   19   20 1   
    20   19   24 1   
    21   20   21 1   
    22   20   23 1   
    23   20   25 1   
    24   21   22 2   
    25   21   29 1   
    26   23   26 1   
    27   23   27 1   
    28   23   28 1   
    29   29   30 1   
    30   29   37 1   
    31   30   31 1   
    32   30   33 1   
    33   30   38 1   
    34   31   32 2   
    35   31   41 1   
    36   33   34 1   
    37   33   39 1   
    38   33   40 1   
    39   34   35 1   
    40   34   36 1   
    41   41   42 1   
    42   41   45 1   
    43   42   43 1   
    44   42   46 1   
    45   42   47 1   
    46   43   44 2   
    47   43   48 1   
    48   48   49 1   
    49   48   56 1   
    50   49   50 1   
    51   49   52 1   
    52   49   57 1   
    53   50   51 2   
    54   50   62 1   
    55   52   53 1   
    56   52   58 1   
    57   52   59 1   
    58   53   54 1   
    59   53   55 2   
    60   54   60 1   
    61   54   61 1   
    62   62   63 1   
    63   62   66 1   
    64   63   64 1   
    65   63   67 1   
    66   63   68 1   
    67   64   65 2   
    68   64   69 1   
    69   69   70 1   
    70   69   76 1   
    71   70   71 1   
    72   70   73 1   
    73   70   77 1   
    74   71   72 2   
    75   71   83 1   
    76   73   74 1   
    77   73   75 1   
    78   73   78 1   
    79   74   80 1   
    80   74   81 1   
    81   74   82 1   
    82   75   79 1   
    83   83   84 1   
    84   83   91 1   
    85   84   85 1   
    86   84   87 1   
    87   84   92 1   
    88   85   86 2   
    89   85  102 1   
    90   87   88 1   
    91   87   89 1   
    92   87   93 1   
    93   88   90 1   
    94   88   94 1   
    95   88   95 1   
    96   89   96 1   
    97   89   97 1   
    98   89   98 1   
    99   90   99 1   
   100   90  100 1   
   101   90  101 1   
   102  102  103 1   
   103  102  110 1   
   104  103  104 1   
   105  103  106 1   
   106  103  111 1   
   107  104  105 2   
   108  104  114 1   
   109  106  107 1   
   110  106  112 1   
   111  106  113 1   
   112  107  108 1   
   113  107  109 1   
   114  114  115 1   
   115  114  125 1   
   116  115  116 1   
   117  115  118 1   
   118  115  126 1   
   119  116  117 2   
   120  116  134 1   
   121  118  119 1   
   122  118  127 1   
   123  118  128 1   
   124  119  120 ar  
   125  119  121 ar  
   126  120  122 ar  
   127  120  129 1   
   128  121  123 ar  
   129  121  130 1   
   130  122  124 ar  
   131  122  131 1   
   132  123  124 ar  
   133  123  132 1   
   134  124  133 1   
   135  134  135 1   
   136  134  140 1   
   137  135  136 1   
   138  135  138 1   
   139  135  141 1   
   140  136  137 2   
   141  136  148 1   
   142  138  139 1   
   143  138  142 1   
   144  138  143 1   
   145  139  140 1   
   146  139  144 1   
   147  139  145 1   
   148  140  146 1   
   149  140  147 1   
   150  148  149 1   
   151  148  157 1   
   152  149  150 1   
   153  149  152 1   
   154  149  158 1   
   155  150  151 2   
   156  150  163 1   
   157  152  153 1   
   158  152  159 1   
   159  152  160 1   
   160  153  154 1   
   161  153  161 1   
   162  153  162 1   
   163  154  155 1   
   164  154  156 1   
   165  163  164 1   
   166  163  168 1   
   167  164  165 1   
   168  164  166 1   
   169  164  167 1   
   170  170  171 1   
   171  170  172 1   
   172  173  174 1   
   173  173  175 1   
   174  176  177 1   
   175  176  178 1   
@<TRIPOS>SUBSTRUCTURE
     1 MOL         1 TEMP              0 ****  ****    0 ROOT
