@<TRIPOS>MOLECULE
MOL
  192   187     1     0     0
SMALL
resp


@<TRIPOS>ATOM
      1 C1         -4.0010   -4.2130    2.8830 c3        1 MOL     -0.021700
      2 C2         -2.9090   -3.9640    1.7700 c         1 MOL      0.530588
      3 O1         -2.5030   -2.8060    1.5120 o         1 MOL     -0.514531
      4 H1         -4.6320   -5.0530    2.5900 hc        1 MOL     -0.000849
      5 H2         -3.5110   -4.4410    3.8300 hc        1 MOL     -0.000849
      6 H3         -4.6160   -3.3200    2.9960 hc        1 MOL     -0.000849
      7 N1         -2.3820   -5.1160    1.2160 n         1 MOL     -0.756949
      8 C3         -1.4290   -5.2510    0.1070 c3        1 MOL     -0.090717
      9 C4         -0.0650   -4.5800    0.3050 c         1 MOL      0.672705
     10 O2          0.7050   -4.3370   -0.6450 o         1 MOL     -0.610857
     11 C5         -2.0050   -4.8110   -1.2710 c3        1 MOL      0.024257
     12 C6         -3.5030   -5.1080   -1.4510 c         1 MOL      0.693748
     13 O3         -4.3670   -4.1870   -1.4260 o         1 MOL     -0.732470
     14 O4         -3.8650   -6.2830   -1.7470 o         1 MOL     -0.732470
     15 H4         -2.6860   -5.9520    1.6850 hn        1 MOL      0.429695
     16 H5         -1.1020   -6.2740   -0.0280 h1        1 MOL      0.117869
     17 H6         -1.4640   -5.3580   -2.0370 hc        1 MOL      0.035100
     18 H7         -1.8360   -3.7450   -1.4150 hc        1 MOL      0.035100
     19 N2          0.2240   -4.3060    1.5590 n         1 MOL     -0.384830
     20 C7          1.5330   -3.6770    2.0180 c3        1 MOL     -0.231714
     21 C8          2.5570   -4.8050    2.3960 c         1 MOL      0.429860
     22 O5          2.2240   -5.8860    3.0060 o         1 MOL     -0.556865
     23 C9          1.2720   -2.6810    3.1920 c3        1 MOL      0.175518
     24 C10         0.1170   -3.0230    4.0920 c3        1 MOL      0.123817
     25 C11         0.9640   -1.2280    2.6360 c3        1 MOL     -0.304000
     26 C12         0.0600   -2.0800    5.3060 c3        1 MOL     -0.269509
     27 H8         -0.4840   -4.4600    2.2680 hn        1 MOL      0.254375
     28 H9          1.9330   -3.0130    1.2510 h1        1 MOL      0.131451
     29 H10         2.1790   -2.5760    3.7850 hc        1 MOL      0.050482
     30 H11         0.2100   -4.0330    4.5060 hc        1 MOL      0.011550
     31 H12        -0.8280   -2.9780    3.5490 hc        1 MOL      0.011550
     32 H13         0.9740   -0.4500    3.4020 hc        1 MOL      0.084439
     33 H14         1.7290   -0.8650    1.9600 hc        1 MOL      0.084439
     34 H15        -0.0200   -1.3020    2.1700 hc        1 MOL      0.084439
     35 H16        -0.4660   -2.5170    6.1450 hc        1 MOL      0.060875
     36 H17         1.0660   -1.8750    5.6910 hc        1 MOL      0.060875
     37 H18        -0.3910   -1.1650    4.9150 hc        1 MOL      0.060875
     38 N3          3.8550   -4.6800    2.2010 n         1 MOL     -0.250444
     39 C13         4.6080   -3.4500    1.9660 c3        1 MOL     -0.013358
     40 C14         4.7210   -3.1950    0.4650 c         1 MOL      0.514342
     41 O6          4.9370   -2.0810    0.0580 o         1 MOL     -0.480777
     42 C15         6.0490   -3.5160    2.5780 c3        1 MOL     -0.192645
     43 C16         6.1860   -3.9730    4.0380 c         1 MOL      0.694094
     44 O7          6.5870   -5.1520    4.2860 o         1 MOL     -0.686866
     45 O8          5.8410   -3.1660    4.9430 o         1 MOL     -0.686866
     46 H19         4.4370   -5.4950    2.3530 hn        1 MOL      0.240242
     47 H20         4.1840   -2.5870    2.4610 h1        1 MOL      0.086501
     48 H21         6.3550   -2.4750    2.5330 hc        1 MOL      0.037720
     49 H22         6.7780   -4.0400    1.9540 hc        1 MOL      0.037720
     50 N4          4.6860   -4.2570   -0.3940 n         1 MOL     -0.324657
     51 C17         4.7510   -4.0600   -1.8000 c3        1 MOL     -0.224354
     52 C18         6.0250   -3.4330   -2.2610 c         1 MOL      0.531978
     53 O9          7.1370   -3.8540   -1.9070 o         1 MOL     -0.587929
     54 H23         4.7130   -5.2370   -0.1740 hn        1 MOL      0.279562
     55 H24         3.9770   -3.3600   -2.0930 h1        1 MOL      0.118612
     56 H25         4.6480   -4.9810   -2.3600 h1        1 MOL      0.118612
     57 N5          5.9240   -2.3230   -2.9080 n         1 MOL     -0.414228
     58 C19         7.0150   -1.5150   -3.2940 c3        1 MOL      0.118658
     59 C20         7.8200   -0.9050   -2.1100 c         1 MOL      0.365589
     60 O10         8.8920   -0.3700   -2.3850 o         1 MOL     -0.585709
     61 C21         6.3990   -0.5680   -4.3290 c3        1 MOL     -0.236975
     62 C22         5.0790    0.1630   -3.8760 c         1 MOL      0.758872
     63 O11         4.2260    0.2360   -4.7960 o         1 MOL     -0.718085
     64 O12         4.9620    0.5880   -2.7290 o         1 MOL     -0.718085
     65 H26         5.0020   -2.0390   -3.2020 hn        1 MOL      0.262985
     66 H27         7.7520   -2.1090   -3.8370 h1        1 MOL      0.055706
     67 H28         6.2490   -1.0720   -5.2910 hc        1 MOL      0.030768
     68 H29         7.1080    0.2440   -4.4720 hc        1 MOL      0.030768
     69 N6          7.2940   -0.8850   -0.9280 n         1 MOL      0.034791
     70 C23         7.8620   -0.3180    0.2940 c3        1 MOL     -0.284556
     71 C24         7.6520    1.2660    0.2940 c         1 MOL      0.522745
     72 O13         7.9570    1.9890    1.2670 o         1 MOL     -0.570785
     73 H30         6.3620   -1.2790   -0.9200 hn        1 MOL      0.133378
     74 H31         8.9000   -0.6220    0.3670 h1        1 MOL      0.133457
     75 H32         7.2390   -0.7070    1.1070 h1        1 MOL      0.133457
     76 N7          6.9460    1.8500   -0.6500 n         1 MOL     -0.245660
     77 C25         6.5550    3.2990   -0.6660 c3        1 MOL     -0.021124
     78 C26         5.8610    3.8350    0.5930 c         1 MOL      0.393683
     79 O14         5.9390    5.0040    0.8500 o         1 MOL     -0.486162
     80 C27         7.7880    4.1390   -0.9640 c3        1 MOL      0.020345
     81 C28         8.3070    3.9820   -2.3620 c3        1 MOL     -0.065313
     82 C29         9.5350    4.8650   -2.6000 c         1 MOL      0.628701
     83 N8         10.0750    4.8370   -3.8240 n         1 MOL     -0.838882
     84 O15        10.0750    5.4690   -1.6780 o         1 MOL     -0.565084
     85 H33         6.6070    1.2770   -1.4100 hn        1 MOL      0.192698
     86 H34         5.8600    3.4800   -1.4860 h1        1 MOL      0.079275
     87 H35         8.5530    3.8130   -0.2700 hc        1 MOL      0.025215
     88 H36         7.5680    5.2100   -0.8790 hc        1 MOL      0.025215
     89 H37         7.5050    4.0900   -3.0950 hc        1 MOL      0.032085
     90 H38         8.6430    2.9490   -2.4490 hc        1 MOL      0.032085
     91 H39         9.6290    4.3680   -4.6070 hn        1 MOL      0.362181
     92 H40        10.9680    5.2890   -3.8640 hn        1 MOL      0.362181
     93 N9          5.1570    2.9270    1.3170 n         1 MOL     -0.112902
     94 C30         4.2660    3.3940    2.3680 c3        1 MOL     -0.087289
     95 C31         2.7620    3.4850    1.9800 c         1 MOL      0.545428
     96 O16         1.9700    4.2540    2.5500 o         1 MOL     -0.560953
     97 C32         4.4400    2.4870    3.6450 c3        1 MOL      0.312380
     98 C33         4.3190    0.9570    3.4320 c3        1 MOL     -0.403543
     99 C34         5.8070    2.7010    4.3260 c3        1 MOL     -0.403543
    100 H41         5.0830    2.0040    0.9200 hn        1 MOL      0.168523
    101 H42         4.4550    4.4280    2.6500 h1        1 MOL      0.080423
    102 H43         3.8340    2.8410    4.4840 hc        1 MOL     -0.038976
    103 H44         3.3510    0.7390    2.9900 hc        1 MOL      0.098934
    104 H45         5.1050    0.5300    2.8120 hc        1 MOL      0.098934
    105 H46         4.3750    0.5440    4.4420 hc        1 MOL      0.098934
    106 H47         6.5590    2.7730    3.5370 hc        1 MOL      0.098934
    107 H48         5.8170    3.6090    4.9310 hc        1 MOL      0.098934
    108 H49         6.0010    1.8390    4.9560 hc        1 MOL      0.098934
    109 N10         2.3260    2.7340    1.0060 n         1 MOL     -0.558280
    110 C35         0.8920    2.5490    0.7800 c3        1 MOL      0.175213
    111 C36         0.1480    3.6900    0.0360 c         1 MOL      0.545763
    112 O17         0.6880    4.6330   -0.6110 o         1 MOL     -0.512915
    113 C37         0.7460    1.2000    0.0780 c3        1 MOL     -0.027402
    114 C38        -0.5810    0.4710    0.3740 c         1 MOL      0.556311
    115 N11        -0.7580   -0.6980   -0.2070 n         1 MOL     -0.529727
    116 O18        -1.3980    0.9210    1.1740 o         1 MOL     -0.557542
    117 H50         2.9880    2.1640    0.4960 hn        1 MOL      0.273833
    118 H51         0.4340    2.4390    1.7710 h1        1 MOL      0.045888
    119 H52         1.5920    0.5770    0.3510 hc        1 MOL      0.021807
    120 H53         0.8640    1.3680   -1.0010 hc        1 MOL      0.021807
    121 H54        -0.0360   -1.1150   -0.7840 hn        1 MOL      0.307516
    122 H55        -1.4940   -1.2780    0.1590 hn        1 MOL      0.307516
    123 N12        -1.2360    3.5190   -0.0100 n         1 MOL     -0.501965
    124 C39        -2.2660    4.3810   -0.5700 c3        1 MOL      0.107060
    125 C40        -3.6940    3.9470   -0.1430 c         1 MOL      0.543638
    126 O19        -3.8590    2.8530    0.3300 o         1 MOL     -0.512172
    127 C41        -2.1320    4.2380   -2.0460 c3        1 MOL     -0.213862
    128 C42        -2.0660    2.7700   -2.6140 ca        1 MOL     -0.038176
    129 C43        -3.1640    1.9730   -2.5280 ca        1 MOL     -0.049999
    130 C44        -0.8260    2.2730   -3.0070 ca        1 MOL     -0.049999
    131 C45        -3.1160    0.6870   -2.9680 ca        1 MOL     -0.375264
    132 C46        -0.7220    0.9470   -3.4360 ca        1 MOL     -0.375264
    133 C47        -1.8460    0.1250   -3.3710 ca        1 MOL      0.410957
    134 O20        -1.7980   -1.2150   -3.4360 oh        1 MOL     -0.512936
    135 H56        -1.5730    2.6900    0.4580 hn        1 MOL      0.262946
    136 H57        -2.1640    5.4370   -0.3440 h1        1 MOL      0.068452
    137 H58        -1.1790    4.6110   -2.4350 hc        1 MOL      0.066178
    138 H59        -2.9910    4.7380   -2.5100 hc        1 MOL      0.066178
    139 H60        -4.1230    2.3940   -2.2560 ha        1 MOL      0.147429
    140 H61         0.0670    2.8820   -2.9190 ha        1 MOL      0.147429
    141 H62        -3.9720    0.0250   -2.8610 ha        1 MOL      0.174666
    142 H63         0.2550    0.5310   -3.6510 ha        1 MOL      0.174666
    143 H64        -2.6400   -1.6720   -3.3520 ho        1 MOL      0.352466
    144 N13        -4.6840    4.8130   -0.1850 n         1 MOL     -0.439605
    145 C48        -6.0280    4.4730    0.2230 c3        1 MOL      0.075610
    146 C49        -6.7970    4.1460   -1.0020 c         1 MOL      0.462446
    147 O21        -6.8890    5.0460   -1.8270 o         1 MOL     -0.582020
    148 C50        -6.6690    5.5820    1.0110 c3        1 MOL      0.075663
    149 C51        -6.0320    5.5740    2.4480 c3        1 MOL     -0.112432
    150 C52        -6.7460    6.4050    3.5520 c         1 MOL      0.643519
    151 O22        -7.9060    6.0140    3.8510 o         1 MOL     -0.669061
    152 O23        -6.2150    7.4520    3.9130 o         1 MOL     -0.669061
    153 H65        -4.5040    5.8030   -0.2830 hn        1 MOL      0.262296
    154 H66        -6.0600    3.5890    0.8460 h1        1 MOL      0.051924
    155 H67        -7.7340    5.4480    1.1930 hc        1 MOL      0.021863
    156 H68        -6.6750    6.5520    0.5180 hc        1 MOL      0.021863
    157 H69        -4.9730    5.8220    2.4670 hc        1 MOL      0.008327
    158 H70        -6.1240    4.5550    2.8190 hc        1 MOL      0.008327
    159 N14        -7.5850    3.0960   -1.0770 n         1 MOL     -0.365590
    160 C53        -7.5140    1.8700   -0.3240 c3        1 MOL     -0.020371
    161 C54        -8.3390    1.8870    0.9740 c         1 MOL      0.436815
    162 O24        -9.0790    2.8480    1.1520 o         1 MOL     -0.490991
    163 C55        -7.9790    0.6810   -1.2300 c3        1 MOL      0.107364
    164 C56        -7.0380    0.2460   -2.2930 c3        1 MOL      0.195256
    165 C57        -7.5220   -0.9790   -3.1040 c         1 MOL      0.484710
    166 O25        -7.0900   -2.1070   -2.6950 o         1 MOL     -0.640145
    167 O26        -8.2590   -0.7740   -4.1320 o         1 MOL     -0.640145
    168 H71        -8.2820    3.1620   -1.8000 hn        1 MOL      0.293257
    169 H72        -6.4590    1.7910   -0.0800 h1        1 MOL      0.076033
    170 H73        -8.8160    1.0790   -1.8030 hc        1 MOL     -0.061004
    171 H74        -8.2590   -0.2300   -0.7070 hc        1 MOL     -0.061004
    172 H75        -6.0840    0.1190   -1.7760 hc        1 MOL     -0.073176
    173 H76        -6.7840    1.0840   -2.9470 hc        1 MOL     -0.073176
    174 N15        -8.2550    0.9400    1.8590 n         1 MOL     -0.407789
    175 C58        -8.7130    0.8510    3.2520 c3        1 MOL      0.037728
    176 H77        -8.9140    1.8530    3.6310 h1        1 MOL      0.041567
    177 H78        -9.6250    0.2560    3.2980 h1        1 MOL      0.041567
    178 H79        -7.9390    0.3820    3.8600 h1        1 MOL      0.041567
    179 H80        -7.8340    0.0610    1.5770 hn        1 MOL      0.311558
    180 Ca1        -7.0410   -4.1180   -1.1290 Ca        1 MOL      1.671556
    181 O27        -5.4410   -2.0310   -0.2540 oh        1 MOL     -0.944330
    182 H81        -5.1410   -1.2120    0.1380 ho        1 MOL      0.438323
    183 H82        -4.6290   -2.4560   -0.5500 ho        1 MOL      0.438323
    184 O28        -9.5630   -4.1640   -2.1020 oh        1 MOL     -0.944330
    185 H83       -10.2370   -4.8380   -2.0210 ho        1 MOL      0.438323
    186 H84        -9.7300   -3.7790   -2.9650 ho        1 MOL      0.438323
    187 O29        -6.8830   -5.2810   -3.4210 oh        1 MOL     -0.944330
    188 O30        -8.3250   -2.8240    0.9630 oh        1 MOL     -0.944330
    189 H85        -6.0860   -5.4990   -3.9020 ho        1 MOL      0.438323
    190 H86        -9.0040   -2.1700    0.7770 ho        1 MOL      0.438323
    191 H87        -7.4880   -4.9660   -4.0800 ho        1 MOL      0.438323
    192 H88        -8.5660   -3.1730    1.8150 ho        1 MOL      0.438323
@<TRIPOS>BOND
     1    1    2 1   
     2    1    4 1   
     3    1    5 1   
     4    1    6 1   
     5    2    3 2   
     6    2    7 1   
     7    7    8 1   
     8    7   15 1   
     9    8    9 1   
    10    8   11 1   
    11    8   16 1   
    12    9   10 2   
    13    9   19 1   
    14   11   12 1   
    15   11   17 1   
    16   11   18 1   
    17   12   13 1   
    18   12   14 1   
    19   19   20 1   
    20   19   27 1   
    21   20   21 1   
    22   20   23 1   
    23   20   28 1   
    24   21   22 2   
    25   21   38 1   
    26   23   24 1   
    27   23   25 1   
    28   23   29 1   
    29   24   26 1   
    30   24   30 1   
    31   24   31 1   
    32   25   32 1   
    33   25   33 1   
    34   25   34 1   
    35   26   35 1   
    36   26   36 1   
    37   26   37 1   
    38   38   39 1   
    39   38   46 1   
    40   39   40 1   
    41   39   42 1   
    42   39   47 1   
    43   40   41 2   
    44   40   50 1   
    45   42   43 1   
    46   42   48 1   
    47   42   49 1   
    48   43   44 1   
    49   43   45 1   
    50   50   51 1   
    51   50   54 1   
    52   51   52 1   
    53   51   55 1   
    54   51   56 1   
    55   52   53 2   
    56   52   57 1   
    57   57   58 1   
    58   57   65 1   
    59   58   59 1   
    60   58   61 1   
    61   58   66 1   
    62   59   60 2   
    63   59   69 1   
    64   61   62 1   
    65   61   67 1   
    66   61   68 1   
    67   62   63 1   
    68   62   64 1   
    69   69   70 1   
    70   69   73 1   
    71   70   71 1   
    72   70   74 1   
    73   70   75 1   
    74   71   72 2   
    75   71   76 1   
    76   76   77 1   
    77   76   85 1   
    78   77   78 1   
    79   77   80 1   
    80   77   86 1   
    81   78   79 2   
    82   78   93 1   
    83   80   81 1   
    84   80   87 1   
    85   80   88 1   
    86   81   82 1   
    87   81   89 1   
    88   81   90 1   
    89   82   83 1   
    90   82   84 2   
    91   83   91 1   
    92   83   92 1   
    93   93   94 1   
    94   93  100 1   
    95   94   95 1   
    96   94   97 1   
    97   94  101 1   
    98   95   96 2   
    99   95  109 1   
   100   97   98 1   
   101   97   99 1   
   102   97  102 1   
   103   98  103 1   
   104   98  104 1   
   105   98  105 1   
   106   99  106 1   
   107   99  107 1   
   108   99  108 1   
   109  109  110 1   
   110  109  117 1   
   111  110  111 1   
   112  110  113 1   
   113  110  118 1   
   114  111  112 2   
   115  111  123 1   
   116  113  114 1   
   117  113  119 1   
   118  113  120 1   
   119  114  115 1   
   120  114  116 2   
   121  115  121 1   
   122  115  122 1   
   123  123  124 1   
   124  123  135 1   
   125  124  125 1   
   126  124  127 1   
   127  124  136 1   
   128  125  126 2   
   129  125  144 1   
   130  127  128 1   
   131  127  137 1   
   132  127  138 1   
   133  128  129 ar  
   134  128  130 ar  
   135  129  131 ar  
   136  129  139 1   
   137  130  132 ar  
   138  130  140 1   
   139  131  133 ar  
   140  131  141 1   
   141  132  133 ar  
   142  132  142 1   
   143  133  134 1   
   144  134  143 1   
   145  144  145 1   
   146  144  153 1   
   147  145  146 1   
   148  145  148 1   
   149  145  154 1   
   150  146  147 2   
   151  146  159 1   
   152  148  149 1   
   153  148  155 1   
   154  148  156 1   
   155  149  150 1   
   156  149  157 1   
   157  149  158 1   
   158  150  151 1   
   159  150  152 1   
   160  159  160 1   
   161  159  168 1   
   162  160  161 1   
   163  160  163 1   
   164  160  169 1   
   165  161  162 2   
   166  161  174 1   
   167  163  164 1   
   168  163  170 1   
   169  163  171 1   
   170  164  165 1   
   171  164  172 1   
   172  164  173 1   
   173  165  166 1   
   174  165  167 1   
   175  174  175 1   
   176  174  179 1   
   177  175  176 1   
   178  175  177 1   
   179  175  178 1   
   180  181  182 1   
   181  181  183 1   
   182  184  185 1   
   183  184  186 1   
   184  187  189 1   
   185  187  191 1   
   186  188  190 1   
   187  188  192 1   
@<TRIPOS>SUBSTRUCTURE
     1 MOL         1 TEMP              0 ****  ****    0 ROOT
