@<TRIPOS>MOLECULE
MOL
  182   178     1     0     0
SMALL
resp


@<TRIPOS>ATOM
      1 C1          0.8730   -4.4940    6.2810 c3        1 MOL     -0.463751
      2 C2          0.9560   -4.2060    4.7640 c         1 MOL      0.734324
      3 O1          0.0380   -4.5490    3.9970 o         1 MOL     -0.582434
      4 H1          0.0440   -3.9320    6.7130 hc        1 MOL      0.123951
      5 H2          0.7100   -5.5600    6.4420 hc        1 MOL      0.123951
      6 H3          1.8040   -4.1910    6.7610 hc        1 MOL      0.123951
      7 N1          2.1530   -3.7090    4.3500 n         1 MOL     -0.530614
      8 C3          2.2860   -3.1200    3.0180 c3        1 MOL     -0.075612
      9 C4          2.4050   -4.2450    1.9300 c         1 MOL      0.634920
     10 O2          3.1460   -5.2230    2.0080 o         1 MOL     -0.554010
     11 C5          3.3920   -2.0280    2.9660 c3        1 MOL      0.027585
     12 C6          3.3330   -1.2260    1.7070 c         1 MOL      0.242034
     13 O3          4.0580   -0.2070    1.7260 o         1 MOL     -0.613387
     14 O4          2.7500   -1.5740    0.6730 o         1 MOL     -0.613387
     15 H4          2.9340   -3.4590    4.9320 hn        1 MOL      0.312772
     16 H5          1.3880   -2.5600    2.7580 h1        1 MOL      0.121196
     17 H6          4.3550   -2.5210    3.0930 hc        1 MOL      0.057151
     18 H7          3.2520   -1.3600    3.8150 hc        1 MOL      0.057151
     19 N2          1.6030   -4.2240    0.8190 n         1 MOL     -0.390943
     20 C7          1.6800   -5.1010   -0.3960 c3        1 MOL      0.004733
     21 C8          2.9620   -4.8780   -1.2610 c         1 MOL      0.450259
     22 O5          3.0620   -5.5420   -2.2880 o         1 MOL     -0.528273
     23 C9          0.4330   -4.7850   -1.2570 c3        1 MOL      0.291071
     24 C10        -0.0860   -6.0540   -1.9340 c3        1 MOL     -0.223080
     25 C11        -1.2000   -5.7530   -3.0150 c3        1 MOL      0.091225
     26 C12        -1.8170   -7.1010   -3.5080 c3        1 MOL      0.096006
     27 N3         -3.0220   -6.8720   -4.3410 n4        1 MOL     -0.498700
     28 H8          0.7830   -3.6370    0.9490 hn        1 MOL      0.174396
     29 H9          1.6500   -6.1510   -0.0910 h1        1 MOL      0.076306
     30 H10         0.5780   -4.0090   -2.0120 hc        1 MOL     -0.042826
     31 H11        -0.3570   -4.3940   -0.6210 hc        1 MOL     -0.042826
     32 H12        -0.6090   -6.6270   -1.1660 hc        1 MOL      0.051171
     33 H13         0.7310   -6.5670   -2.4340 hc        1 MOL      0.051171
     34 H14        -0.7760   -5.2910   -3.9180 hc        1 MOL      0.001448
     35 H15        -1.9490   -5.0800   -2.5880 hc        1 MOL      0.001448
     36 H16        -2.2470   -7.6160   -2.6520 hx        1 MOL      0.070413
     37 H17        -1.1240   -7.7660   -4.0280 hx        1 MOL      0.070413
     38 H18        -2.6390   -6.4800   -5.1960 hn        1 MOL      0.333636
     39 H19        -3.4590   -7.7500   -4.5810 hn        1 MOL      0.333636
     40 H20        -3.7300   -6.3550   -3.8350 hn        1 MOL      0.333636
     41 N4          3.9240   -4.0140   -0.9050 n         1 MOL     -0.176766
     42 C13         5.2790   -3.9460   -1.5230 c3        1 MOL     -0.194652
     43 C14         6.3900   -3.3700   -0.5980 c         1 MOL      0.509517
     44 O6          7.5730   -3.7530   -0.7270 o         1 MOL     -0.522149
     45 C15         5.2240   -3.1420   -2.8760 c3        1 MOL     -0.172017
     46 C16         4.5740   -1.7610   -2.8670 c         1 MOL      0.808092
     47 O7          4.1060   -1.2290   -1.8060 o         1 MOL     -0.744366
     48 O8          4.4460   -1.2280   -3.9930 o         1 MOL     -0.744366
     49 H21         3.6510   -3.3740   -0.1740 hn        1 MOL      0.182654
     50 H22         5.5900   -4.9460   -1.8080 h1        1 MOL      0.144800
     51 H23         4.6830   -3.7550   -3.5910 hc        1 MOL      0.087140
     52 H24         6.2380   -2.9390   -3.2250 hc        1 MOL      0.087140
     53 N5          6.0470   -2.6480    0.4590 n         1 MOL     -0.238191
     54 C17         6.9750   -1.7610    1.2350 c3        1 MOL     -0.092016
     55 C18         7.3340   -0.4540    0.6060 c         1 MOL      0.639604
     56 O9          8.4170    0.0330    0.8390 o         1 MOL     -0.624693
     57 H25         5.0520   -2.5800    0.6510 hn        1 MOL      0.142891
     58 H26         7.8760   -2.3320    1.4400 h1        1 MOL      0.087966
     59 H27         6.5120   -1.4630    2.1790 h1        1 MOL      0.087966
     60 N6          6.4750    0.1370   -0.1940 n         1 MOL     -0.200152
     61 C19         6.7790    1.3480   -1.0310 c3        1 MOL     -0.235289
     62 C20         5.6550    2.3710   -0.9250 c         1 MOL      0.653151
     63 O10         4.4280    1.9760   -0.9470 o         1 MOL     -0.602111
     64 C21         6.9970    0.9000   -2.5230 c3        1 MOL     -0.124688
     65 C22         8.2080   -0.0160   -2.8200 c         1 MOL      0.623124
     66 N7          9.1720   -0.2870   -1.9500 n         1 MOL     -0.812513
     67 O11         8.2070   -0.5980   -3.8920 o         1 MOL     -0.554984
     68 H28         5.5280   -0.2120   -0.2370 hn        1 MOL      0.195173
     69 H29         7.6820    1.7540   -0.5820 h1        1 MOL      0.090598
     70 H30         7.1270    1.8050   -3.1100 hc        1 MOL      0.067419
     71 H31         6.1050    0.5280   -3.0210 hc        1 MOL      0.067419
     72 H32         9.1470    0.1120   -1.0220 hn        1 MOL      0.389266
     73 H33         9.8820   -0.9510   -2.2300 hn        1 MOL      0.389266
     74 N8          5.9620    3.6600   -0.9450 n         1 MOL     -0.400720
     75 C23         4.9620    4.7060   -1.1190 c3        1 MOL     -0.065031
     76 C24         3.8710    4.7830   -0.0880 c         1 MOL      0.556674
     77 O12         4.1330    4.6060    1.0950 o         1 MOL     -0.509331
     78 H34         6.9520    3.8290   -0.8400 hn        1 MOL      0.313799
     79 H35         4.5640    4.7780   -2.1360 h1        1 MOL      0.083492
     80 H36         5.4980    5.6580   -1.0900 h1        1 MOL      0.083492
     81 N9          2.6420    4.9830   -0.4740 n         1 MOL     -0.565216
     82 C25         1.5870    4.9580    0.5160 c3        1 MOL      0.097576
     83 C26         1.4160    3.5460    1.0700 c         1 MOL      0.774103
     84 O13         1.9720    2.6320    0.4790 o         1 MOL     -0.583249
     85 C27         0.3030    5.5710   -0.0330 c3        1 MOL     -0.403660
     86 C28         0.3880    7.0140   -0.4980 ca        1 MOL      0.160667
     87 C29         0.4930    7.2960   -1.8760 ca        1 MOL     -0.138071
     88 C30         0.1020    8.0390    0.4120 ca        1 MOL     -0.138071
     89 C31         0.5310    8.6030   -2.3000 ca        1 MOL     -0.323587
     90 C32         0.1150    9.4090    0.0170 ca        1 MOL     -0.323587
     91 C33         0.3520    9.6650   -1.3620 ca        1 MOL      0.386874
     92 O14         0.4580   10.9520   -1.7490 oh        1 MOL     -0.465700
     93 H37         2.3540    4.9960   -1.4430 hn        1 MOL      0.345699
     94 H38         1.9110    5.5570    1.3580 h1        1 MOL      0.080691
     95 H39        -0.4760    5.4670    0.7220 hc        1 MOL      0.114900
     96 H40        -0.0100    4.9700   -0.8890 hc        1 MOL      0.114900
     97 H41         0.5300    6.4760   -2.5770 ha        1 MOL      0.130863
     98 H42        -0.0470    7.7940    1.4540 ha        1 MOL      0.130863
     99 H43         0.7960    8.8940   -3.3080 ha        1 MOL      0.179230
    100 H44         0.0080   10.2260    0.7140 ha        1 MOL      0.179230
    101 H45         0.3460   11.4730   -0.9460 ho        1 MOL      0.354596
    102 N10         0.5750    3.3460    2.0950 n         1 MOL     -0.741827
    103 C34         0.2000    2.1910    2.9300 c3        1 MOL      0.003189
    104 C35        -0.1220    0.9430    2.0940 c         1 MOL      0.673388
    105 O15         0.7190    0.3420    1.5850 o         1 MOL     -0.442540
    106 C36         1.1700    1.8520    4.0890 c3        1 MOL      0.311706
    107 C37         0.2920    0.9810    5.1300 c3        1 MOL     -0.049416
    108 C38         1.7010    3.0990    4.7650 c3        1 MOL     -0.279563
    109 C39         1.1000    0.5770    6.3730 c3        1 MOL      0.000854
    110 H46         0.2520    4.2000    2.5110 hn        1 MOL      0.356981
    111 H47        -0.7390    2.4220    3.4450 h1        1 MOL      0.063660
    112 H48         1.9250    1.1280    3.7600 hc        1 MOL      0.001112
    113 H49        -0.1710    0.1330    4.6210 hc        1 MOL     -0.012595
    114 H50        -0.4460    1.6710    5.5330 hc        1 MOL     -0.012595
    115 H51         1.9980    3.8190    4.0020 hc        1 MOL      0.067949
    116 H52         0.8730    3.5380    5.3230 hc        1 MOL      0.067949
    117 H53         2.5130    2.8800    5.4480 hc        1 MOL      0.067949
    118 H54         0.4550   -0.0320    7.0180 hc        1 MOL      0.001485
    119 H55         1.8940   -0.0960    6.0420 hc        1 MOL      0.001485
    120 H56         1.5310    1.3840    6.9610 hc        1 MOL      0.001485
    121 N11        -1.3340    0.3790    2.2600 n         1 MOL     -0.671109
    122 C40        -1.7980   -0.8850    1.6720 c3        1 MOL      0.156528
    123 C41        -3.0940   -0.8560    0.7890 c         1 MOL      0.698185
    124 O16        -3.2860   -1.6420   -0.1360 o         1 MOL     -0.590430
    125 C42        -2.0400   -1.8010    2.8340 c3        1 MOL      0.180793
    126 O17        -3.0370   -1.3010    3.7020 oh        1 MOL     -0.597986
    127 H57        -1.9660    0.7890    2.9380 hn        1 MOL      0.257103
    128 H58        -1.0840   -1.2600    0.9480 h1        1 MOL      0.020193
    129 H59        -1.0900   -1.9870    3.3520 h1        1 MOL      0.020014
    130 H60        -2.3350   -2.7840    2.4580 h1        1 MOL      0.020014
    131 H61        -2.9680   -1.8810    4.4730 ho        1 MOL      0.416217
    132 N12        -3.9840    0.0930    1.0700 n         1 MOL     -0.753317
    133 C43        -5.3540    0.3310    0.5010 c3        1 MOL      0.230212
    134 C44        -5.3010    0.6480   -1.0470 c         1 MOL      0.721321
    135 O18        -4.3670    1.3160   -1.5130 o         1 MOL     -0.595571
    136 C45        -6.1100    1.4350    1.3290 c3        1 MOL     -0.327628
    137 H62        -3.7780    0.6230    1.9120 hn        1 MOL      0.389614
    138 H63        -5.8660   -0.6000    0.7370 h1        1 MOL      0.114621
    139 H64        -6.0230    1.2900    2.4070 hc        1 MOL      0.099962
    140 H65        -5.7070    2.4030    1.0420 hc        1 MOL      0.099962
    141 H66        -7.1520    1.3710    1.0030 hc        1 MOL      0.099962
    142 N13        -6.3050    0.3150   -1.8930 n         1 MOL     -0.741127
    143 C46        -7.5860   -0.3630   -1.6710 c3        1 MOL      0.267605
    144 C47        -8.6810    0.2470   -2.5620 c         1 MOL      0.605716
    145 O19        -8.6590    0.3970   -3.8010 o         1 MOL     -0.589554
    146 C48        -7.4570   -1.9240   -1.7550 c3        1 MOL     -0.157714
    147 H67        -6.0920    0.5750   -2.8400 hn        1 MOL      0.338451
    148 H68        -7.9400   -0.1030   -0.6760 h1        1 MOL     -0.040011
    149 H69        -8.2690   -2.4270   -1.2360 hc        1 MOL      0.050126
    150 H70        -7.5180   -2.2550   -2.7960 hc        1 MOL      0.050126
    151 H71        -6.5130   -2.1530   -1.2640 hc        1 MOL      0.050126
    152 N14        -9.7890    0.6350   -1.9740 n         1 MOL     -0.546618
    153 C49       -10.2890    0.2860   -0.6650 c3        1 MOL     -0.016767
    154 C50        -9.8800    1.2750    0.3760 c         1 MOL      0.372810
    155 O20        -9.5940    0.7700    1.5130 o         1 MOL     -0.513563
    156 C51       -11.8160   -0.0370   -0.7570 c3        1 MOL      0.148236
    157 C52       -12.0990   -1.4550   -1.2730 c3        1 MOL     -0.084435
    158 C53       -11.9470   -2.5620   -0.2340 c         1 MOL      0.693526
    159 O21       -10.7840   -3.0800   -0.0820 o         1 MOL     -0.662213
    160 O22       -12.9240   -2.8950    0.4490 o         1 MOL     -0.662213
    161 H72       -10.4610    1.0510   -2.5960 hn        1 MOL      0.327236
    162 H73        -9.8560   -0.6990   -0.4460 h1        1 MOL      0.083708
    163 H74       -12.2440    0.6780   -1.4620 hc        1 MOL     -0.013032
    164 H75       -12.3470    0.2430    0.1500 hc        1 MOL     -0.013032
    165 H76       -11.3750   -1.7770   -2.0220 hc        1 MOL     -0.021079
    166 H77       -13.1400   -1.5660   -1.5820 hc        1 MOL     -0.021079
    167 N15        -9.7270    2.5280    0.0640 n         1 MOL     -0.248432
    168 C54        -9.3030    3.7320    0.8870 c3        1 MOL     -0.095779
    169 H78        -8.4180    4.1830    0.4390 h1        1 MOL      0.081360
    170 H79       -10.1120    4.4620    0.9060 h1        1 MOL      0.081360
    171 H80        -9.0740    3.4150    1.9040 h1        1 MOL      0.081360
    172 H81        -9.9700    2.7000   -0.9070 hn        1 MOL      0.220275
    173 Ca1         2.3180    0.4000   -0.8590 Ca        1 MOL      1.829498
    174 O23         0.5240    1.8030   -2.1270 oh        1 MOL     -0.922046
    175 H82        -0.3520    1.9430   -1.7770 ho        1 MOL      0.437697
    176 H83         0.4470    2.0090   -3.0580 ho        1 MOL      0.437697
    177 O24         0.6900   -1.3140   -1.8740 oh        1 MOL     -0.922046
    178 H84        -0.1430   -0.9150   -2.1180 ho        1 MOL      0.437697
    179 H85         0.7790   -2.0480   -2.4810 ho        1 MOL      0.437697
    180 O25         2.9400    0.8730   -3.3740 oh        1 MOL     -0.922046
    181 H86         3.0270    1.4890   -4.0920 ho        1 MOL      0.437697
    182 H87         3.3940    0.0830   -3.6720 ho        1 MOL      0.437697
@<TRIPOS>BOND
     1    1    2 1   
     2    1    4 1   
     3    1    5 1   
     4    1    6 1   
     5    2    3 2   
     6    2    7 1   
     7    7    8 1   
     8    7   15 1   
     9    8    9 1   
    10    8   11 1   
    11    8   16 1   
    12    9   10 2   
    13    9   19 1   
    14   11   12 1   
    15   11   17 1   
    16   11   18 1   
    17   12   13 1   
    18   12   14 1   
    19   19   20 1   
    20   19   28 1   
    21   20   21 1   
    22   20   23 1   
    23   20   29 1   
    24   21   22 2   
    25   21   41 1   
    26   23   24 1   
    27   23   30 1   
    28   23   31 1   
    29   24   25 1   
    30   24   32 1   
    31   24   33 1   
    32   25   26 1   
    33   25   34 1   
    34   25   35 1   
    35   26   27 1   
    36   26   36 1   
    37   26   37 1   
    38   27   38 1   
    39   27   39 1   
    40   27   40 1   
    41   41   42 1   
    42   41   49 1   
    43   42   43 1   
    44   42   45 1   
    45   42   50 1   
    46   43   44 2   
    47   43   53 1   
    48   45   46 1   
    49   45   51 1   
    50   45   52 1   
    51   46   47 1   
    52   46   48 1   
    53   53   54 1   
    54   53   57 1   
    55   54   55 1   
    56   54   58 1   
    57   54   59 1   
    58   55   56 2   
    59   55   60 1   
    60   60   61 1   
    61   60   68 1   
    62   61   62 1   
    63   61   64 1   
    64   61   69 1   
    65   62   63 2   
    66   62   74 1   
    67   64   65 1   
    68   64   70 1   
    69   64   71 1   
    70   65   66 1   
    71   65   67 2   
    72   66   72 1   
    73   66   73 1   
    74   74   75 1   
    75   74   78 1   
    76   75   76 1   
    77   75   79 1   
    78   75   80 1   
    79   76   77 2   
    80   76   81 1   
    81   81   82 1   
    82   81   93 1   
    83   82   83 1   
    84   82   85 1   
    85   82   94 1   
    86   83   84 2   
    87   83  102 1   
    88   85   86 1   
    89   85   95 1   
    90   85   96 1   
    91   86   87 ar  
    92   86   88 ar  
    93   87   89 ar  
    94   87   97 1   
    95   88   90 ar  
    96   88   98 1   
    97   89   91 ar  
    98   89   99 1   
    99   90   91 ar  
   100   90  100 1   
   101   91   92 1   
   102   92  101 1   
   103  102  103 1   
   104  102  110 1   
   105  103  104 1   
   106  103  106 1   
   107  103  111 1   
   108  104  105 2   
   109  104  121 1   
   110  106  107 1   
   111  106  108 1   
   112  106  112 1   
   113  107  109 1   
   114  107  113 1   
   115  107  114 1   
   116  108  115 1   
   117  108  116 1   
   118  108  117 1   
   119  109  118 1   
   120  109  119 1   
   121  109  120 1   
   122  121  122 1   
   123  121  127 1   
   124  122  123 1   
   125  122  125 1   
   126  122  128 1   
   127  123  124 2   
   128  123  132 1   
   129  125  126 1   
   130  125  129 1   
   131  125  130 1   
   132  126  131 1   
   133  132  133 1   
   134  132  137 1   
   135  133  134 1   
   136  133  136 1   
   137  133  138 1   
   138  134  135 2   
   139  134  142 1   
   140  136  139 1   
   141  136  140 1   
   142  136  141 1   
   143  142  143 1   
   144  142  147 1   
   145  143  144 1   
   146  143  146 1   
   147  143  148 1   
   148  144  145 2   
   149  144  152 1   
   150  146  149 1   
   151  146  150 1   
   152  146  151 1   
   153  152  153 1   
   154  152  161 1   
   155  153  154 1   
   156  153  156 1   
   157  153  162 1   
   158  154  155 2   
   159  154  167 1   
   160  156  157 1   
   161  156  163 1   
   162  156  164 1   
   163  157  158 1   
   164  157  165 1   
   165  157  166 1   
   166  158  159 1   
   167  158  160 1   
   168  167  168 1   
   169  167  172 1   
   170  168  169 1   
   171  168  170 1   
   172  168  171 1   
   173  174  175 1   
   174  174  176 1   
   175  177  178 1   
   176  177  179 1   
   177  180  181 1   
   178  180  182 1   
@<TRIPOS>SUBSTRUCTURE
     1 MOL         1 TEMP              0 ****  ****    0 ROOT
