@<TRIPOS>MOLECULE
MOL
  182   178     1     0     0
SMALL
resp


@<TRIPOS>ATOM
      1 C1         -1.9420   -4.7440    4.7280 c3        1 MOL     -0.239400
      2 C2         -1.4360   -4.3920    3.3340 c         1 MOL      0.656095
      3 O1         -2.0380   -4.5410    2.2370 o         1 MOL     -0.592259
      4 H1         -2.1170   -3.8280    5.2920 hc        1 MOL      0.068615
      5 H2         -2.8730   -5.3030    4.6460 hc        1 MOL      0.068615
      6 H3         -1.1970   -5.3500    5.2430 hc        1 MOL      0.068615
      7 N1         -0.2630   -3.8150    3.3570 n         1 MOL     -0.488985
      8 C3          0.4730   -3.3700    2.1820 c3        1 MOL      0.024279
      9 C4          1.0380   -4.4960    1.2450 c         1 MOL      0.560055
     10 O2          2.0000   -5.2460    1.5610 o         1 MOL     -0.547036
     11 C5          1.5540   -2.3790    2.5940 c3        1 MOL      0.063078
     12 C6          2.4170   -1.6960    1.4940 c         1 MOL      0.541870
     13 O3          3.2860   -0.7930    1.7910 o         1 MOL     -0.679938
     14 O4          2.3210   -2.0620    0.3140 o         1 MOL     -0.679938
     15 H4          0.2340   -3.7550    4.2410 hn        1 MOL      0.294824
     16 H5         -0.1660   -2.7260    1.5650 h1        1 MOL      0.024794
     17 H6          2.2200   -2.9680    3.2290 hc        1 MOL     -0.005142
     18 H7          1.0550   -1.5760    3.1530 hc        1 MOL     -0.005142
     19 N2          0.4360   -4.6250    0.0520 n         1 MOL     -0.332696
     20 C7          0.8300   -5.5550   -1.0160 c3        1 MOL      0.089062
     21 C8          2.2530   -5.6400   -1.5230 c         1 MOL      0.577562
     22 O5          2.4860   -6.6680   -2.0920 o         1 MOL     -0.542898
     23 C9         -0.1610   -5.3490   -2.1490 c3        1 MOL     -0.308708
     24 C10        -0.0490   -3.9660   -2.7480 c3        1 MOL      0.077982
     25 C11        -0.8750   -3.8390   -4.0240 c3        1 MOL      0.177757
     26 C12        -0.8460   -2.4450   -4.6520 c3        1 MOL      0.071570
     27 N3         -1.3950   -2.5300   -6.0150 n4        1 MOL     -0.189634
     28 H8         -0.2370   -3.9290   -0.2380 hn        1 MOL      0.242049
     29 H9          0.5440   -6.5280   -0.6070 h1        1 MOL      0.093130
     30 H10        -1.1630   -5.4460   -1.7490 hc        1 MOL      0.090855
     31 H11         0.0380   -6.1370   -2.8850 hc        1 MOL      0.090855
     32 H12         0.9810   -3.7030   -3.0020 hc        1 MOL      0.008944
     33 H13        -0.4830   -3.2650   -2.0300 hc        1 MOL      0.008944
     34 H14        -1.9250   -4.0240   -3.7790 hc        1 MOL     -0.029592
     35 H15        -0.6270   -4.5530   -4.8130 hc        1 MOL     -0.029592
     36 H16         0.2100   -2.1580   -4.6390 hx        1 MOL      0.015321
     37 H17        -1.3990   -1.7800   -3.9880 hx        1 MOL      0.015321
     38 H18        -2.2670   -3.0160   -6.1420 hn        1 MOL      0.233643
     39 H19        -1.4630   -1.5770   -6.3380 hn        1 MOL      0.233643
     40 H20        -0.7450   -2.9770   -6.6350 hn        1 MOL      0.233643
     41 N4          3.1400   -4.6770   -1.0710 n         1 MOL     -0.308298
     42 C13         4.5730   -4.6620   -1.5440 c3        1 MOL     -0.074976
     43 C14         5.6340   -4.2560   -0.4630 c         1 MOL      0.457632
     44 O6          6.8200   -4.3920   -0.7060 o         1 MOL     -0.531997
     45 C15         4.5590   -3.6780   -2.7110 c3        1 MOL     -0.126326
     46 C16         4.0760   -2.2690   -2.3630 c         1 MOL      0.763913
     47 O7          4.8850   -1.5040   -1.7650 o         1 MOL     -0.719040
     48 O8          3.0500   -1.8860   -2.7980 o         1 MOL     -0.719040
     49 H21         2.7100   -3.9640   -0.4920 hn        1 MOL      0.035994
     50 H22         4.9240   -5.6220   -1.9130 h1        1 MOL      0.135626
     51 H23         4.0670   -4.0750   -3.5980 hc        1 MOL      0.042603
     52 H24         5.5650   -3.5680   -3.1130 hc        1 MOL      0.042603
     53 N5          5.1750   -3.5880    0.6210 n         1 MOL     -0.050756
     54 C17         5.9550   -3.0830    1.7330 c3        1 MOL     -0.412148
     55 C18         6.7640   -1.8290    1.6420 c         1 MOL      0.659107
     56 O9          7.6220   -1.5310    2.5090 o         1 MOL     -0.562490
     57 H25         4.1650   -3.5240    0.6900 hn        1 MOL      0.180138
     58 H26         6.6350   -3.8910    1.9950 h1        1 MOL      0.165212
     59 H27         5.2670   -3.0700    2.5850 h1        1 MOL      0.165212
     60 N6          6.5260   -0.9980    0.6080 n         1 MOL     -0.482906
     61 C19         7.2650    0.2070    0.1660 c3        1 MOL      0.460400
     62 C20         6.2390    1.3120   -0.1430 c         1 MOL      0.158923
     63 O10         5.0280    1.0710   -0.1810 o         1 MOL     -0.301732
     64 C21         8.1620   -0.1660   -0.9600 c3        1 MOL     -0.136415
     65 C22         9.2620   -1.1960   -0.4900 c         1 MOL      0.436136
     66 N7          8.9580   -2.4640   -0.4400 n         1 MOL     -0.582620
     67 O11        10.4220   -0.8450   -0.1610 o         1 MOL     -0.536563
     68 H28         5.7170   -1.2810    0.0790 hn        1 MOL      0.198663
     69 H29         7.9410    0.5800    0.9490 h1        1 MOL     -0.026785
     70 H30         8.6290    0.7380   -1.3430 hc        1 MOL      0.021990
     71 H31         7.6110   -0.6440   -1.7640 hc        1 MOL      0.021990
     72 H32         8.1010   -2.7950   -0.8490 hn        1 MOL      0.328554
     73 H33         9.7670   -3.0580   -0.2800 hn        1 MOL      0.328554
     74 N8          6.7790    2.4470   -0.4530 n         1 MOL     -0.166636
     75 C23         5.9460    3.5720   -0.9300 c3        1 MOL     -0.273019
     76 C24         4.8640    3.9960    0.0220 c         1 MOL      0.671438
     77 O12         5.0300    3.9150    1.2290 o         1 MOL     -0.532849
     78 H34         7.7890    2.4850   -0.3640 hn        1 MOL      0.267727
     79 H35         5.3800    3.2770   -1.8160 h1        1 MOL      0.103495
     80 H36         6.5910    4.4410   -1.0190 h1        1 MOL      0.103495
     81 N9          3.7300    4.3720   -0.5800 n         1 MOL     -0.615594
     82 C25         2.5690    4.6640    0.2560 c3        1 MOL      0.347834
     83 C26         2.0050    3.3920    0.9330 c         1 MOL      0.392717
     84 O13         2.4680    2.2860    0.6730 o         1 MOL     -0.435402
     85 C27         1.5560    5.3570   -0.6850 c3        1 MOL     -0.109693
     86 C28         2.0040    6.7420   -1.1140 ca        1 MOL      0.006407
     87 C29         2.0900    7.7310   -0.1370 ca        1 MOL     -0.131481
     88 C30         2.3960    7.0070   -2.4250 ca        1 MOL     -0.131481
     89 C31         2.5080    9.0110   -0.4100 ca        1 MOL     -0.254338
     90 C32         2.8560    8.3020   -2.7560 ca        1 MOL     -0.254338
     91 C33         2.9960    9.2390   -1.6840 ca        1 MOL      0.322068
     92 O14         3.3710   10.5170   -1.9530 oh        1 MOL     -0.425695
     93 H37         3.7250    4.4200   -1.5930 hn        1 MOL      0.256556
     94 H38         2.8650    5.4790    0.9180 h1        1 MOL      0.050916
     95 H39         0.6680    5.4540   -0.0600 hc        1 MOL      0.028099
     96 H40         1.4710    4.7420   -1.5720 hc        1 MOL      0.028099
     97 H41         1.7980    7.4520    0.8700 ha        1 MOL      0.115346
     98 H42         2.3310    6.2070   -3.1440 ha        1 MOL      0.115346
     99 H43         2.4550    9.7950    0.3310 ha        1 MOL      0.169419
    100 H44         3.0450    8.5540   -3.7830 ha        1 MOL      0.169419
    101 H45         3.3340   10.5840   -2.9070 ho        1 MOL      0.322403
    102 N10         1.0420    3.5220    1.8420 n         1 MOL     -0.663781
    103 C34         0.4390    2.4320    2.6910 c3        1 MOL      0.154115
    104 C35        -0.3280    1.2900    1.8700 c         1 MOL      0.577719
    105 O15         0.2320    0.6630    1.0130 o         1 MOL     -0.354526
    106 C36         1.4670    1.8220    3.6550 c3        1 MOL      0.279842
    107 C37         0.7690    1.1380    4.8880 c3        1 MOL     -0.335834
    108 C38         2.6110    2.6390    4.2000 c3        1 MOL     -0.005913
    109 C39         0.1130    1.9060    6.0160 c3        1 MOL     -0.365745
    110 H46         0.9010    4.4520    2.2060 hn        1 MOL      0.335035
    111 H47        -0.3400    2.8240    3.3410 h1        1 MOL      0.017371
    112 H48         1.8770    1.0180    3.0340 hc        1 MOL     -0.071400
    113 H49         1.5170    0.5060    5.3690 hc        1 MOL      0.125446
    114 H50        -0.0530    0.5660    4.4730 hc        1 MOL      0.125446
    115 H51         2.3110    3.5100    4.7840 hc        1 MOL      0.012445
    116 H52         3.2560    1.9600    4.7570 hc        1 MOL      0.012445
    117 H53         3.1630    3.0840    3.3700 hc        1 MOL      0.012445
    118 H54        -0.7720    2.4050    5.6200 hc        1 MOL      0.108895
    119 H55        -0.1140    1.2180    6.8300 hc        1 MOL      0.108895
    120 H56         0.9050    2.5830    6.3040 hc        1 MOL      0.108895
    121 N11        -1.6340    1.0950    2.0740 n         1 MOL     -0.739425
    122 C40        -2.3080   -0.1640    1.8850 c3        1 MOL      0.118381
    123 C41        -3.6780    0.0230    1.2280 c         1 MOL      0.559464
    124 O16        -4.2400   -0.9750    0.7950 o         1 MOL     -0.551725
    125 C42        -2.4220   -0.9350    3.1720 c3        1 MOL      0.299981
    126 O17        -3.1290   -0.2820    4.2000 oh        1 MOL     -0.621471
    127 H57        -2.1630    1.8210    2.5250 hn        1 MOL      0.376669
    128 H58        -1.7240   -0.7030    1.1410 h1        1 MOL     -0.009855
    129 H59        -1.3930   -1.1380    3.4880 h1        1 MOL     -0.016025
    130 H60        -2.9670   -1.8380    2.8810 h1        1 MOL     -0.016025
    131 H61        -3.0970   -0.8560    4.9690 ho        1 MOL      0.412854
    132 N12        -4.2660    1.1970    1.2120 n         1 MOL     -0.446201
    133 C43        -5.5180    1.3990    0.5340 c3        1 MOL      0.220427
    134 C44        -5.3400    1.8650   -0.9470 c         1 MOL      0.479491
    135 O18        -4.3550    2.5380   -1.3130 o         1 MOL     -0.574291
    136 C45        -6.2930    2.3950    1.4120 c3        1 MOL     -0.109914
    137 H62        -3.6630    1.9320    1.5280 hn        1 MOL      0.251615
    138 H63        -6.1200    0.4900    0.5020 h1        1 MOL      0.058131
    139 H64        -7.3090    2.5740    1.0700 hc        1 MOL      0.041065
    140 H65        -6.3410    2.0530    2.4440 hc        1 MOL      0.041065
    141 H66        -5.7370    3.3240    1.4400 hc        1 MOL      0.041065
    142 N13        -6.2980    1.6670   -1.8680 n         1 MOL     -0.490911
    143 C46        -7.4220    0.6340   -1.8230 c3        1 MOL      0.026858
    144 C47        -8.8180    1.3230   -2.1170 c         1 MOL      0.544209
    145 O19        -8.9390    2.0680   -3.0730 o         1 MOL     -0.546737
    146 C48        -7.0920   -0.4480   -2.8840 c3        1 MOL     -0.237008
    147 H67        -6.0950    2.0460   -2.7790 hn        1 MOL      0.336638
    148 H68        -7.5170    0.1770   -0.8420 h1        1 MOL      0.109192
    149 H69        -6.9820    0.0530   -3.8450 hc        1 MOL      0.080039
    150 H70        -6.0770   -0.7920   -2.7550 hc        1 MOL      0.080039
    151 H71        -7.7190   -1.3390   -2.8940 hc        1 MOL      0.080039
    152 N14        -9.9100    1.1480   -1.3300 n         1 MOL     -0.541296
    153 C49       -10.0750    0.3540   -0.0910 c3        1 MOL     -0.016574
    154 C50       -10.5850    1.2180    1.1010 c         1 MOL      0.375276
    155 O20       -10.4600    0.8330    2.2490 o         1 MOL     -0.500746
    156 C51       -11.1260   -0.7560   -0.3240 c3        1 MOL      0.104138
    157 C52       -10.5990   -1.8390   -1.2480 c3        1 MOL     -0.153161
    158 C53       -11.4170   -3.1020   -1.0900 c         1 MOL      0.689961
    159 O21       -10.7630   -4.1610   -1.2060 o         1 MOL     -0.660063
    160 O22       -12.6430   -3.0290   -1.0200 o         1 MOL     -0.660063
    161 H72       -10.7400    1.6610   -1.5980 hn        1 MOL      0.345390
    162 H73        -9.1240   -0.0510    0.2700 h1        1 MOL      0.094298
    163 H74       -12.0590   -0.3220   -0.6980 hc        1 MOL      0.006311
    164 H75       -11.3050   -1.2770    0.6260 hc        1 MOL      0.006311
    165 H76        -9.5830   -2.0500   -0.9150 hc        1 MOL      0.032229
    166 H77       -10.6400   -1.4790   -2.2800 hc        1 MOL      0.032229
    167 N15       -11.1380    2.3720    0.7670 n         1 MOL     -0.218889
    168 C54       -11.7790    3.3920    1.6560 c3        1 MOL     -0.186034
    169 H78       -11.1340    4.2670    1.7290 h1        1 MOL      0.100495
    170 H79       -12.7420    3.6850    1.2380 h1        1 MOL      0.100495
    171 H80       -11.9270    2.9670    2.6490 h1        1 MOL      0.100495
    172 H81       -11.1970    2.6200   -0.2100 hn        1 MOL      0.202418
    173 Ca1         2.6580    0.1430   -0.9320 Ca        1 MOL      1.707837
    174 O23         1.1660    1.9850   -2.0270 oh        1 MOL     -0.876152
    175 H82         1.3100    2.2690   -2.9390 ho        1 MOL      0.426066
    176 H83         0.2370    2.1290   -1.8780 ho        1 MOL      0.426066
    177 O24         4.1510    1.5320   -2.6930 oh        1 MOL     -0.876152
    178 H84         4.8140    1.3550   -3.3670 ho        1 MOL      0.426066
    179 H85         3.7040    2.3270   -2.9940 ho        1 MOL      0.426066
    180 O25         0.2300   -0.7300   -1.6760 oh        1 MOL     -0.876152
    181 H86        -0.5340   -0.5680   -2.2320 ho        1 MOL      0.426066
    182 H87        -0.1390   -1.0490   -0.8560 ho        1 MOL      0.426066
@<TRIPOS>BOND
     1    1    2 1   
     2    1    4 1   
     3    1    5 1   
     4    1    6 1   
     5    2    3 2   
     6    2    7 1   
     7    7    8 1   
     8    7   15 1   
     9    8    9 1   
    10    8   11 1   
    11    8   16 1   
    12    9   10 2   
    13    9   19 1   
    14   11   12 1   
    15   11   17 1   
    16   11   18 1   
    17   12   13 1   
    18   12   14 1   
    19   19   20 1   
    20   19   28 1   
    21   20   21 1   
    22   20   23 1   
    23   20   29 1   
    24   21   22 2   
    25   21   41 1   
    26   23   24 1   
    27   23   30 1   
    28   23   31 1   
    29   24   25 1   
    30   24   32 1   
    31   24   33 1   
    32   25   26 1   
    33   25   34 1   
    34   25   35 1   
    35   26   27 1   
    36   26   36 1   
    37   26   37 1   
    38   27   38 1   
    39   27   39 1   
    40   27   40 1   
    41   41   42 1   
    42   41   49 1   
    43   42   43 1   
    44   42   45 1   
    45   42   50 1   
    46   43   44 2   
    47   43   53 1   
    48   45   46 1   
    49   45   51 1   
    50   45   52 1   
    51   46   47 1   
    52   46   48 1   
    53   53   54 1   
    54   53   57 1   
    55   54   55 1   
    56   54   58 1   
    57   54   59 1   
    58   55   56 2   
    59   55   60 1   
    60   60   61 1   
    61   60   68 1   
    62   61   62 1   
    63   61   64 1   
    64   61   69 1   
    65   62   63 2   
    66   62   74 1   
    67   64   65 1   
    68   64   70 1   
    69   64   71 1   
    70   65   66 1   
    71   65   67 2   
    72   66   72 1   
    73   66   73 1   
    74   74   75 1   
    75   74   78 1   
    76   75   76 1   
    77   75   79 1   
    78   75   80 1   
    79   76   77 2   
    80   76   81 1   
    81   81   82 1   
    82   81   93 1   
    83   82   83 1   
    84   82   85 1   
    85   82   94 1   
    86   83   84 2   
    87   83  102 1   
    88   85   86 1   
    89   85   95 1   
    90   85   96 1   
    91   86   87 ar  
    92   86   88 ar  
    93   87   89 ar  
    94   87   97 1   
    95   88   90 ar  
    96   88   98 1   
    97   89   91 ar  
    98   89   99 1   
    99   90   91 ar  
   100   90  100 1   
   101   91   92 1   
   102   92  101 1   
   103  102  103 1   
   104  102  110 1   
   105  103  104 1   
   106  103  106 1   
   107  103  111 1   
   108  104  105 2   
   109  104  121 1   
   110  106  107 1   
   111  106  108 1   
   112  106  112 1   
   113  107  109 1   
   114  107  113 1   
   115  107  114 1   
   116  108  115 1   
   117  108  116 1   
   118  108  117 1   
   119  109  118 1   
   120  109  119 1   
   121  109  120 1   
   122  121  122 1   
   123  121  127 1   
   124  122  123 1   
   125  122  125 1   
   126  122  128 1   
   127  123  124 2   
   128  123  132 1   
   129  125  126 1   
   130  125  129 1   
   131  125  130 1   
   132  126  131 1   
   133  132  133 1   
   134  132  137 1   
   135  133  134 1   
   136  133  136 1   
   137  133  138 1   
   138  134  135 2   
   139  134  142 1   
   140  136  139 1   
   141  136  140 1   
   142  136  141 1   
   143  142  143 1   
   144  142  147 1   
   145  143  144 1   
   146  143  146 1   
   147  143  148 1   
   148  144  145 2   
   149  144  152 1   
   150  146  149 1   
   151  146  150 1   
   152  146  151 1   
   153  152  153 1   
   154  152  161 1   
   155  153  154 1   
   156  153  156 1   
   157  153  162 1   
   158  154  155 2   
   159  154  167 1   
   160  156  157 1   
   161  156  163 1   
   162  156  164 1   
   163  157  158 1   
   164  157  165 1   
   165  157  166 1   
   166  158  159 1   
   167  158  160 1   
   168  167  168 1   
   169  167  172 1   
   170  168  169 1   
   171  168  170 1   
   172  168  171 1   
   173  174  175 1   
   174  174  176 1   
   175  177  178 1   
   176  177  179 1   
   177  180  181 1   
   178  180  182 1   
@<TRIPOS>SUBSTRUCTURE
     1 MOL         1 TEMP              0 ****  ****    0 ROOT
