@<TRIPOS>MOLECULE
MOL
  189   185     1     0     0
SMALL
resp


@<TRIPOS>ATOM
      1 C1          8.8110   -0.0790    2.9050 c3        1 MOL     -0.522532
      2 C2          7.7830    0.1010    1.7970 c         1 MOL      0.725177
      3 O1          6.5680   -0.0070    2.0100 o         1 MOL     -0.654855
      4 H1          8.4550   -0.8290    3.6120 hc        1 MOL      0.135682
      5 H2          9.7570   -0.4060    2.4740 hc        1 MOL      0.135682
      6 H3          8.9560    0.8680    3.4250 hc        1 MOL      0.135682
      7 N1          8.2180    0.1130    0.5410 n         1 MOL     -0.480468
      8 C3          7.4080    0.4100   -0.6510 c3        1 MOL     -0.052574
      9 C4          6.8320   -0.9370   -1.2830 c         1 MOL      0.494647
     10 O2          6.4730   -1.0000   -2.4950 o         1 MOL     -0.439495
     11 C5          8.1390    1.3010   -1.6760 c3        1 MOL     -0.384652
     12 C6          9.4940    0.6790   -2.1780 c         1 MOL      0.794643
     13 O3          9.6130   -0.5400   -2.2870 o         1 MOL     -0.656310
     14 O4         10.4650    1.4700   -2.3770 o         1 MOL     -0.656310
     15 H4          9.2110   -0.0290    0.4430 hn        1 MOL      0.295933
     16 H5          6.6100    1.0280   -0.2520 h1        1 MOL      0.186940
     17 H6          8.4370    2.1670   -1.0890 hc        1 MOL      0.117386
     18 H7          7.6010    1.6220   -2.5630 hc        1 MOL      0.117386
     19 N2          6.6270   -1.8980   -0.3980 n         1 MOL     -0.443601
     20 C7          6.0600   -3.1830   -0.7650 c3        1 MOL      0.300223
     21 C8          4.7010   -3.1830   -1.4430 c         1 MOL      0.286032
     22 O5          4.5550   -3.7880   -2.4660 o         1 MOL     -0.506269
     23 C9          6.1570   -4.0710    0.5240 c3        1 MOL     -0.094898
     24 C10         7.6130   -4.3000    0.9710 c3        1 MOL      0.087741
     25 C11         7.7630   -5.5160    1.9550 c3        1 MOL     -0.165743
     26 C12         9.1980   -5.6650    2.3290 c3        1 MOL      0.119008
     27 N3          9.4390   -6.5340    3.5590 n4        1 MOL     -0.273337
     28 H8          6.9410   -1.7030    0.5440 hn        1 MOL      0.232868
     29 H9          6.6720   -3.8070   -1.4280 h1        1 MOL      0.021875
     30 H10         5.6980   -5.0270    0.2880 hc        1 MOL      0.028163
     31 H11         5.6930   -3.5800    1.3810 hc        1 MOL      0.028163
     32 H12         7.7980   -3.3890    1.5440 hc        1 MOL      0.003271
     33 H13         8.3390   -4.2190    0.1630 hc        1 MOL      0.003271
     34 H14         7.3660   -6.3700    1.4090 hc        1 MOL      0.064897
     35 H15         7.0050   -5.3340    2.7040 hc        1 MOL      0.064897
     36 H16         9.5780   -4.6600    2.5130 hx        1 MOL      0.061683
     37 H17         9.8260   -6.0040    1.5060 hx        1 MOL      0.061683
     38 H18         9.5120   -7.4980    3.2650 hn        1 MOL      0.268619
     39 H19        10.3450   -6.3780    3.9750 hn        1 MOL      0.268619
     40 H20         8.7410   -6.4540    4.2820 hn        1 MOL      0.268619
     41 N4          3.7090   -2.4320   -0.9470 n         1 MOL     -0.133338
     42 C13         3.4950   -1.6280    0.2580 c3        1 MOL     -0.405731
     43 C14         3.2240   -0.0920   -0.0410 c         1 MOL      0.380521
     44 O6          2.8280    0.2700   -1.1060 o         1 MOL     -0.407146
     45 C15         2.3740   -2.3220    1.0770 c3        1 MOL     -0.123860
     46 C16         1.1370   -2.5600    0.2430 c         1 MOL      0.568660
     47 O7          0.7800   -1.8700   -0.7530 o         1 MOL     -0.606057
     48 O8          0.4840   -3.5210    0.6760 o         1 MOL     -0.606057
     49 H21         2.9890   -2.3040   -1.6490 hn        1 MOL      0.281616
     50 H22         4.4150   -1.7040    0.8380 h1        1 MOL      0.193225
     51 H23         2.1320   -1.6170    1.8750 hc        1 MOL      0.075185
     52 H24         2.8370   -3.1450    1.6080 hc        1 MOL      0.075185
     53 N5          3.5250    0.7190    0.9720 n         1 MOL     -0.208211
     54 C17         3.5840    2.2050    0.8510 c3        1 MOL     -0.018176
     55 C18         2.4660    2.8090   -0.0480 c         1 MOL      0.608167
     56 O9          1.3270    2.2970   -0.0090 o         1 MOL     -0.612032
     57 H25         4.0100    0.2990    1.7490 hn        1 MOL      0.265747
     58 H26         4.5570    2.3860    0.4070 h1        1 MOL      0.034160
     59 H27         3.5600    2.6570    1.8480 h1        1 MOL      0.034160
     60 N6          2.7380    3.8710   -0.8240 n         1 MOL     -0.506072
     61 C19         1.7150    4.6420   -1.6200 c3        1 MOL      0.206252
     62 C20         1.7220    6.1130   -1.2120 c         1 MOL      0.514701
     63 O10         2.7820    6.7470   -1.0420 o         1 MOL     -0.559076
     64 C21         2.0150    4.5040   -3.1320 c3        1 MOL     -0.280151
     65 C22         2.1490    2.9910   -3.5270 c         1 MOL      0.644054
     66 O11         1.1800    2.2300   -3.2470 o         1 MOL     -0.638120
     67 O12         3.2110    2.6510   -4.1330 o         1 MOL     -0.638120
     68 H28         3.6980    4.1410   -0.9560 hn        1 MOL      0.313761
     69 H29         0.7060    4.2740   -1.4150 h1        1 MOL      0.021667
     70 H30         2.8860    5.0990   -3.4480 hc        1 MOL      0.080263
     71 H31         1.1090    4.9190   -3.5780 hc        1 MOL      0.080263
     72 N7          0.5970    6.8160   -1.1130 n         1 MOL     -0.516014
     73 C23        -0.8120    6.3560   -1.0880 c3        1 MOL      0.117331
     74 C24        -1.2050    5.8540    0.3350 c         1 MOL      0.445321
     75 O13        -0.5200    6.1350    1.3180 o         1 MOL     -0.498781
     76 H32         0.7760    7.7840   -0.9000 hn        1 MOL      0.324714
     77 H33        -1.0060    5.5290   -1.7770 h1        1 MOL      0.037889
     78 H34        -1.5400    7.0580   -1.4950 h1        1 MOL      0.037889
     79 N8         -2.1780    4.9230    0.4810 n         1 MOL     -0.328030
     80 C25        -2.8380    4.7580    1.7600 c3        1 MOL      0.009489
     81 C26        -2.0300    3.8430    2.7430 c         1 MOL      0.318395
     82 O14        -2.3390    3.8170    3.9400 o         1 MOL     -0.534889
     83 C27        -4.2720    4.3090    1.6300 c3        1 MOL      0.324520
     84 C28        -4.4790    2.8630    1.1360 c3        1 MOL     -0.316769
     85 O15        -4.8590    5.1470    0.6210 oh        1 MOL     -0.649212
     86 H35        -2.7070    4.7950   -0.3650 hn        1 MOL      0.236167
     87 H36        -2.7950    5.7670    2.1590 h1        1 MOL      0.106221
     88 H37        -4.6960    4.5630    2.6030 h1        1 MOL      0.001907
     89 H38        -5.7600    4.8470    0.5040 ho        1 MOL      0.410247
     90 H39        -3.9120    2.8900    0.2100 hc        1 MOL      0.075294
     91 H40        -4.0570    2.0970    1.7890 hc        1 MOL      0.075294
     92 H41        -5.5390    2.7210    0.9220 hc        1 MOL      0.075294
     93 N9         -1.1740    2.9530    2.2140 n         1 MOL     -0.065125
     94 C29        -0.6780    1.7460    2.9410 c3        1 MOL     -0.016934
     95 C30        -0.9430    0.5130    2.1130 c         1 MOL      0.148505
     96 O16        -0.5250    0.3980    0.9350 o         1 MOL     -0.329677
     97 C31         0.7330    1.8880    3.4250 c3        1 MOL      0.219522
     98 C32         0.9920    3.2030    4.1800 c3        1 MOL     -0.171866
     99 C33         1.0710    0.6340    4.2710 c3        1 MOL     -0.289704
    100 C34         2.4460    3.4880    4.5740 c3        1 MOL     -0.025276
    101 H42        -0.8970    3.0700    1.2430 hn        1 MOL      0.202422
    102 H43        -1.2350    1.6950    3.8820 h1        1 MOL      0.044018
    103 H44         1.3480    1.8250    2.5370 hc        1 MOL     -0.068087
    104 H45         0.2800    3.4480    4.9790 hc        1 MOL      0.064523
    105 H46         0.7720    3.9540    3.4240 hc        1 MOL      0.064523
    106 H47         0.8660   -0.3120    3.7790 hc        1 MOL      0.061271
    107 H48         2.0890    0.6620    4.6570 hc        1 MOL      0.061271
    108 H49         0.3960    0.8190    5.1090 hc        1 MOL      0.061271
    109 H50         3.0540    3.4910    3.6750 hc        1 MOL      0.020151
    110 H51         2.5690    4.4600    5.0580 hc        1 MOL      0.020151
    111 H52         2.8820    2.8580    5.3430 hc        1 MOL      0.020151
    112 N10        -1.8010   -0.3520    2.6200 n         1 MOL     -0.145273
    113 C35        -2.1410   -1.6530    1.9790 c3        1 MOL     -0.055691
    114 C36        -3.6400   -1.7930    1.5690 c         1 MOL      0.403936
    115 O17        -4.0500   -2.7610    0.9430 o         1 MOL     -0.552752
    116 C37        -1.7750   -2.8470    2.8020 c3        1 MOL      0.442016
    117 C38        -2.3490   -2.7830    4.2670 c3        1 MOL     -0.266523
    118 O18        -0.3700   -2.9340    3.0190 oh        1 MOL     -0.612961
    119 H53        -2.1400   -0.1930    3.5530 hn        1 MOL      0.245336
    120 H54        -1.6600   -1.7680    1.0080 h1        1 MOL      0.134092
    121 H55        -2.0730   -3.7480    2.2710 h1        1 MOL     -0.008063
    122 H56        -0.0710   -3.2210    2.1590 ho        1 MOL      0.316448
    123 H57        -3.4090   -2.5080    4.3110 hc        1 MOL      0.050581
    124 H58        -2.2910   -3.7630    4.7410 hc        1 MOL      0.050581
    125 H59        -1.7750   -2.0070    4.7760 hc        1 MOL      0.050581
    126 N11        -4.4490   -0.9190    2.1340 n         1 MOL     -0.260327
    127 C39        -5.8730   -1.0310    2.0630 c3        1 MOL     -0.028617
    128 C40        -6.3050   -1.1770    0.5640 c         1 MOL      0.394593
    129 O19        -6.0800   -0.2050   -0.2030 o         1 MOL     -0.449190
    130 C41        -6.5510    0.1620    2.6490 c3        1 MOL      0.428887
    131 C42        -8.0940    0.1170    2.6370 c3        1 MOL     -0.602054
    132 O20        -6.1390    0.2180    4.0160 oh        1 MOL     -0.615421
    133 H60        -4.1200   -0.3130    2.8760 hn        1 MOL      0.175379
    134 H61        -6.1410   -1.9250    2.6120 h1        1 MOL      0.077777
    135 H62        -6.2690    1.0640    2.1160 h1        1 MOL      0.001705
    136 H63        -6.1770    1.1440    4.2310 ho        1 MOL      0.393099
    137 H64        -8.4210    1.0730    3.0620 hc        1 MOL      0.150312
    138 H65        -8.3400   -0.0430    1.5870 hc        1 MOL      0.150312
    139 H66        -8.4230   -0.6720    3.3080 hc        1 MOL      0.150312
    140 N12        -6.8320   -2.3520    0.2300 n         1 MOL     -0.343407
    141 C43        -7.1700   -2.8130   -1.2290 c3        1 MOL      0.181159
    142 C44        -6.1230   -2.2260   -2.2910 c         1 MOL      0.424162
    143 O21        -6.4270   -1.4480   -3.2090 o         1 MOL     -0.478144
    144 C45        -8.5750   -2.3220   -1.5520 c3        1 MOL     -0.228056
    145 C46        -9.6330   -3.0900   -0.6330 c3        1 MOL     -0.064586
    146 C47       -11.0280   -2.6780   -1.0440 c3        1 MOL     -0.011319
    147 C48       -12.0330   -3.0930    0.0890 c3        1 MOL      0.046089
    148 N13       -13.4040   -2.5690   -0.1910 n4        1 MOL     -0.269130
    149 H67        -7.0160   -2.9690    1.0080 hn        1 MOL      0.235557
    150 H68        -7.0210   -3.8870   -1.2880 h1        1 MOL      0.043643
    151 H69        -8.7730   -2.4110   -2.6160 hc        1 MOL      0.098754
    152 H70        -8.6260   -1.2670   -1.3160 hc        1 MOL      0.098754
    153 H71        -9.4510   -2.9190    0.4320 hc        1 MOL      0.034326
    154 H72        -9.5160   -4.1680   -0.7640 hc        1 MOL      0.034326
    155 H73       -11.2740   -3.1720   -1.9770 hc        1 MOL      0.046655
    156 H74       -11.1470   -1.6060   -1.1940 hc        1 MOL      0.046655
    157 H75       -11.7300   -2.7670    1.0820 hx        1 MOL      0.062963
    158 H76       -11.9860   -4.1820    0.0870 hx        1 MOL      0.062963
    159 H77       -13.4640   -1.6210    0.1640 hn        1 MOL      0.246063
    160 H78       -13.5640   -2.4990   -1.1790 hn        1 MOL      0.246063
    161 H79       -14.0390   -3.2200    0.2580 hn        1 MOL      0.246063
    162 N14        -4.8470   -2.5130   -2.1080 n         1 MOL     -0.579093
    163 C49        -3.6720   -1.8350   -2.6640 c3        1 MOL      0.287838
    164 C50        -2.4720   -1.9880   -1.7110 c         1 MOL      0.503781
    165 O22        -1.9400   -0.9490   -1.2970 o         1 MOL     -0.610683
    166 C51        -3.4410   -2.2450   -4.1540 c3        1 MOL     -0.075126
    167 C52        -2.2890   -1.5550   -4.8370 c3        1 MOL     -0.020585
    168 C53        -2.2890   -0.0990   -4.4550 c         1 MOL      0.749620
    169 O23        -1.3080    0.4610   -3.9670 o         1 MOL     -0.706947
    170 O24        -3.3320    0.5310   -4.7800 o         1 MOL     -0.706947
    171 H80        -4.7030   -3.1410   -1.3340 hn        1 MOL      0.314127
    172 H81        -3.9320   -0.7710   -2.6790 h1        1 MOL      0.079944
    173 H82        -4.3800   -2.1620   -4.6940 hc        1 MOL      0.022990
    174 H83        -3.2190   -3.3130   -4.1740 hc        1 MOL      0.022990
    175 H84        -2.3620   -1.6270   -5.9230 hc        1 MOL     -0.018796
    176 H85        -1.3980   -2.0590   -4.4500 hc        1 MOL     -0.018796
    177 N15        -1.9850   -3.1940   -1.2550 n         1 MOL     -0.253641
    178 C54        -2.2400   -4.5220   -1.7350 c3        1 MOL     -0.248396
    179 H86        -3.3150   -4.6660   -1.8480 h1        1 MOL      0.090242
    180 H87        -1.7520   -4.6610   -2.6990 h1        1 MOL      0.090242
    181 H88        -1.8500   -5.2480   -1.0210 h1        1 MOL      0.090242
    182 H89        -1.1440   -3.0320   -0.7290 hn        1 MOL      0.273060
    183 Ca1         0.1990    0.4240   -1.7470 Ca        1 MOL      1.691343
    184 O25         1.5360   -1.0470   -3.4810 oh        1 MOL     -0.981690
    185 H90         2.4400   -0.8220   -3.6930 ho        1 MOL      0.455193
    186 H91         1.3310   -1.7800   -4.0630 ho        1 MOL      0.455193
    187 O26        -1.9590    2.0920   -1.5680 oh        1 MOL     -0.981690
    188 H92        -2.0050    2.8070   -2.2100 ho        1 MOL      0.455193
    189 H93        -2.8450    1.7110   -1.5760 ho        1 MOL      0.455193
@<TRIPOS>BOND
     1    1    2 1   
     2    1    4 1   
     3    1    5 1   
     4    1    6 1   
     5    2    3 2   
     6    2    7 1   
     7    7    8 1   
     8    7   15 1   
     9    8    9 1   
    10    8   11 1   
    11    8   16 1   
    12    9   10 2   
    13    9   19 1   
    14   11   12 1   
    15   11   17 1   
    16   11   18 1   
    17   12   13 1   
    18   12   14 1   
    19   19   20 1   
    20   19   28 1   
    21   20   21 1   
    22   20   23 1   
    23   20   29 1   
    24   21   22 2   
    25   21   41 1   
    26   23   24 1   
    27   23   30 1   
    28   23   31 1   
    29   24   25 1   
    30   24   32 1   
    31   24   33 1   
    32   25   26 1   
    33   25   34 1   
    34   25   35 1   
    35   26   27 1   
    36   26   36 1   
    37   26   37 1   
    38   27   38 1   
    39   27   39 1   
    40   27   40 1   
    41   41   42 1   
    42   41   49 1   
    43   42   43 1   
    44   42   45 1   
    45   42   50 1   
    46   43   44 2   
    47   43   53 1   
    48   45   46 1   
    49   45   51 1   
    50   45   52 1   
    51   46   47 1   
    52   46   48 1   
    53   53   54 1   
    54   53   57 1   
    55   54   55 1   
    56   54   58 1   
    57   54   59 1   
    58   55   56 2   
    59   55   60 1   
    60   60   61 1   
    61   60   68 1   
    62   61   62 1   
    63   61   64 1   
    64   61   69 1   
    65   62   63 2   
    66   62   72 1   
    67   64   65 1   
    68   64   70 1   
    69   64   71 1   
    70   65   66 1   
    71   65   67 1   
    72   72   73 1   
    73   72   76 1   
    74   73   74 1   
    75   73   77 1   
    76   73   78 1   
    77   74   75 2   
    78   74   79 1   
    79   79   80 1   
    80   79   86 1   
    81   80   81 1   
    82   80   83 1   
    83   80   87 1   
    84   81   82 2   
    85   81   93 1   
    86   83   84 1   
    87   83   85 1   
    88   83   88 1   
    89   84   90 1   
    90   84   91 1   
    91   84   92 1   
    92   85   89 1   
    93   93   94 1   
    94   93  101 1   
    95   94   95 1   
    96   94   97 1   
    97   94  102 1   
    98   95   96 2   
    99   95  112 1   
   100   97   98 1   
   101   97   99 1   
   102   97  103 1   
   103   98  100 1   
   104   98  104 1   
   105   98  105 1   
   106   99  106 1   
   107   99  107 1   
   108   99  108 1   
   109  100  109 1   
   110  100  110 1   
   111  100  111 1   
   112  112  113 1   
   113  112  119 1   
   114  113  114 1   
   115  113  116 1   
   116  113  120 1   
   117  114  115 2   
   118  114  126 1   
   119  116  117 1   
   120  116  118 1   
   121  116  121 1   
   122  117  123 1   
   123  117  124 1   
   124  117  125 1   
   125  118  122 1   
   126  126  127 1   
   127  126  133 1   
   128  127  128 1   
   129  127  130 1   
   130  127  134 1   
   131  128  129 2   
   132  128  140 1   
   133  130  131 1   
   134  130  132 1   
   135  130  135 1   
   136  131  137 1   
   137  131  138 1   
   138  131  139 1   
   139  132  136 1   
   140  140  141 1   
   141  140  149 1   
   142  141  142 1   
   143  141  144 1   
   144  141  150 1   
   145  142  143 2   
   146  142  162 1   
   147  144  145 1   
   148  144  151 1   
   149  144  152 1   
   150  145  146 1   
   151  145  153 1   
   152  145  154 1   
   153  146  147 1   
   154  146  155 1   
   155  146  156 1   
   156  147  148 1   
   157  147  157 1   
   158  147  158 1   
   159  148  159 1   
   160  148  160 1   
   161  148  161 1   
   162  162  163 1   
   163  162  171 1   
   164  163  164 1   
   165  163  166 1   
   166  163  172 1   
   167  164  165 2   
   168  164  177 1   
   169  166  167 1   
   170  166  173 1   
   171  166  174 1   
   172  167  168 1   
   173  167  175 1   
   174  167  176 1   
   175  168  169 1   
   176  168  170 1   
   177  177  178 1   
   178  177  182 1   
   179  178  179 1   
   180  178  180 1   
   181  178  181 1   
   182  184  185 1   
   183  184  186 1   
   184  187  188 1   
   185  187  189 1   
@<TRIPOS>SUBSTRUCTURE
     1 MOL         1 TEMP              0 ****  ****    0 ROOT
