@<TRIPOS>MOLECULE
MOL
  182   178     1     0     0
SMALL
resp


@<TRIPOS>ATOM
      1 C1          0.8460   -3.6950    5.9190 c3        1 MOL     -0.414161
      2 C2          0.8360   -3.6740    4.3430 c         1 MOL      0.713151
      3 O1         -0.1930   -3.9180    3.7150 o         1 MOL     -0.580639
      4 H1          1.8620   -3.8730    6.2730 hc        1 MOL      0.114865
      5 H2          0.4910   -2.7370    6.2990 hc        1 MOL      0.114865
      6 H3          0.1930   -4.4920    6.2760 hc        1 MOL      0.114865
      7 N1          2.0140   -3.4700    3.7830 n         1 MOL     -0.494550
      8 C3          2.3110   -3.1320    2.3860 c3        1 MOL     -0.009644
      9 C4          2.2750   -4.3220    1.4390 c         1 MOL      0.522702
     10 O2          2.7040   -5.4310    1.7870 o         1 MOL     -0.547234
     11 C5          3.7560   -2.5360    2.3190 c3        1 MOL     -0.001429
     12 C6          3.9130   -1.5050    1.1740 c         1 MOL      0.644272
     13 O3          4.4050   -0.4230    1.4830 o         1 MOL     -0.651305
     14 O4          3.4770   -1.7400    0.0440 o         1 MOL     -0.651305
     15 H4          2.8080   -3.5010    4.4090 hn        1 MOL      0.315982
     16 H5          1.5680   -2.4290    2.0030 h1        1 MOL     -0.053721
     17 H6          4.4630   -3.3250    2.0850 hc        1 MOL      0.020208
     18 H7          3.9710   -2.0450    3.2680 hc        1 MOL      0.020208
     19 N2          1.7640   -4.2030    0.2360 n         1 MOL     -0.081182
     20 C7          1.6830   -5.2580   -0.7740 c3        1 MOL     -0.168778
     21 C8          2.8260   -5.2370   -1.7660 c         1 MOL      0.577920
     22 O5          3.1500   -6.2000   -2.3970 o         1 MOL     -0.574448
     23 C9          0.2650   -5.3060   -1.5210 c3        1 MOL     -0.084093
     24 C10        -0.8570   -5.5570   -0.4660 c3        1 MOL     -0.003513
     25 C11        -2.2310   -5.6160   -1.0580 c3        1 MOL     -0.057035
     26 C12        -2.2960   -6.6590   -2.1780 c3        1 MOL      0.201075
     27 N3         -3.6580   -7.0760   -2.5450 n4        1 MOL     -0.305758
     28 H8          1.5320   -3.2890   -0.1110 hn        1 MOL      0.038460
     29 H9          1.7980   -6.2120   -0.2750 h1        1 MOL      0.114870
     30 H10         0.1740   -6.0290   -2.3230 hc        1 MOL      0.052006
     31 H11         0.0030   -4.3340   -1.9540 hc        1 MOL      0.052006
     32 H12        -0.8580   -4.9110    0.4060 hc        1 MOL      0.044899
     33 H13        -0.6600   -6.5540   -0.0440 hc        1 MOL      0.044899
     34 H14        -2.4870   -4.6280   -1.4270 hc        1 MOL      0.021138
     35 H15        -2.9010   -6.0430   -0.3010 hc        1 MOL      0.021138
     36 H16        -1.8480   -7.5880   -1.8240 hx        1 MOL      0.027109
     37 H17        -1.7430   -6.3070   -3.0490 hx        1 MOL      0.027109
     38 H18        -3.6190   -7.6390   -3.3900 hn        1 MOL      0.265379
     39 H19        -4.1070   -7.6840   -1.8680 hn        1 MOL      0.265379
     40 H20        -4.2960   -6.3450   -2.8150 hn        1 MOL      0.265379
     41 N4          3.3850   -4.0520   -2.0410 n         1 MOL     -0.264333
     42 C13         4.5850   -3.9640   -2.8490 c3        1 MOL      0.273075
     43 C14         5.8350   -3.8380   -2.0420 c         1 MOL      0.380072
     44 O6          6.7490   -4.4960   -2.4990 o         1 MOL     -0.552524
     45 C15         4.5660   -2.7840   -3.8180 c3        1 MOL     -0.436032
     46 C16         3.8900   -1.5210   -3.2030 c         1 MOL      0.841088
     47 O7          4.5190   -0.6590   -2.5730 o         1 MOL     -0.756861
     48 O8          2.6420   -1.4760   -3.2370 o         1 MOL     -0.756861
     49 H21         2.9780   -3.2490   -1.5760 hn        1 MOL      0.033235
     50 H22         4.6930   -4.8620   -3.4530 h1        1 MOL      0.075476
     51 H23         4.0850   -3.1790   -4.7100 hc        1 MOL      0.110685
     52 H24         5.5410   -2.4240   -4.1310 hc        1 MOL      0.110685
     53 N5          5.8990   -3.0430   -0.9790 n         1 MOL     -0.041959
     54 C17         7.0420   -2.7110   -0.1520 c3        1 MOL      0.078487
     55 C18         7.1790   -1.3380    0.4880 c         1 MOL      0.529291
     56 O9          7.4590   -1.1970    1.6840 o         1 MOL     -0.538046
     57 H25         5.1360   -2.4010   -0.8020 hn        1 MOL     -0.051059
     58 H26         7.9730   -2.7490   -0.7180 h1        1 MOL      0.020394
     59 H27         7.1960   -3.5090    0.5890 h1        1 MOL      0.020394
     60 N6          6.9270   -0.3020   -0.2800 n         1 MOL     -0.357483
     61 C19         7.2010    1.0880    0.0230 c3        1 MOL      0.163500
     62 C20         6.0890    2.0790   -0.3360 c         1 MOL      0.552746
     63 O10         5.0540    1.8110   -0.9810 o         1 MOL     -0.518898
     64 C21         8.5080    1.3500   -0.7010 c3        1 MOL     -0.501784
     65 C22         9.6880    0.6750   -0.0020 c         1 MOL      0.678117
     66 N7         10.0900    1.3410    1.0190 n         1 MOL     -0.681412
     67 O11        10.3030   -0.3140   -0.3790 o         1 MOL     -0.533066
     68 H28         6.7500   -0.5120   -1.2470 hn        1 MOL      0.261964
     69 H29         7.2940    1.0550    1.1120 h1        1 MOL      0.062683
     70 H30         8.6850    2.4300   -0.7370 hc        1 MOL      0.129604
     71 H31         8.4900    1.0290   -1.7340 hc        1 MOL      0.129604
     72 H32         9.6690    2.2140    1.2700 hn        1 MOL      0.328623
     73 H33        11.0610    1.1980    1.3120 hn        1 MOL      0.328623
     74 N8          6.2370    3.2590    0.1820 n         1 MOL     -0.373321
     75 C23         5.3600    4.4160   -0.1630 c3        1 MOL     -0.214889
     76 C24         4.2100    4.5530    0.8750 c         1 MOL      0.664626
     77 O12         4.3360    4.1180    2.0150 o         1 MOL     -0.500997
     78 H34         6.9930    3.4660    0.8260 hn        1 MOL      0.294709
     79 H35         4.8160    4.2230   -1.0830 h1        1 MOL      0.116195
     80 H36         6.0700    5.2450   -0.2340 h1        1 MOL      0.116195
     81 N9          3.1170    5.1330    0.3600 n         1 MOL     -0.693070
     82 C25         1.7690    4.8900    0.9510 c3        1 MOL      0.227264
     83 C26         1.5200    3.4230    1.0930 c         1 MOL      0.788019
     84 O13         2.0750    2.5970    0.3240 o         1 MOL     -0.653313
     85 C27         0.7600    5.5390    0.0470 c3        1 MOL     -0.106800
     86 C28         1.2270    6.8700   -0.5490 ca        1 MOL      0.123932
     87 C29         1.6420    7.8990    0.2990 ca        1 MOL     -0.179068
     88 C30         1.1540    6.9980   -1.9160 ca        1 MOL     -0.179068
     89 C31         2.0840    9.1060   -0.2920 ca        1 MOL     -0.243337
     90 C32         1.5530    8.2370   -2.5000 ca        1 MOL     -0.243337
     91 C33         2.0410    9.2940   -1.6480 ca        1 MOL      0.313530
     92 O14         2.3770   10.4870   -2.1960 oh        1 MOL     -0.474037
     93 H37         3.0870    5.4460   -0.5980 hn        1 MOL      0.322741
     94 H38         1.6500    5.3650    1.9300 h1        1 MOL      0.029281
     95 H39        -0.1240    5.7220    0.6420 hc        1 MOL      0.027326
     96 H40         0.5050    4.8900   -0.7920 hc        1 MOL      0.027326
     97 H41         1.7870    7.8440    1.3640 ha        1 MOL      0.142325
     98 H42         0.7560    6.1470   -2.4580 ha        1 MOL      0.142325
     99 H43         2.4440    9.8290    0.4240 ha        1 MOL      0.156930
    100 H44         1.4200    8.5010   -3.5420 ha        1 MOL      0.156930
    101 H45         2.6080   11.1670   -1.5470 ho        1 MOL      0.375313
    102 N10         0.5740    3.0740    2.0050 n         1 MOL     -0.947048
    103 C34         0.3670    1.7630    2.5450 c3        1 MOL      0.537664
    104 C35         0.0220    0.7100    1.4590 c         1 MOL      0.424409
    105 O15         0.9170    0.1350    0.7880 o         1 MOL     -0.626250
    106 C36         1.4300    1.1500    3.5000 c3        1 MOL      0.149657
    107 C37         0.7920   -0.2490    4.1340 c3        1 MOL     -0.189950
    108 C38         1.9250    2.1040    4.6290 c3        1 MOL     -0.167848
    109 C39        -0.4600   -0.2260    4.9310 c3        1 MOL     -0.434513
    110 H46         0.1020    3.8230    2.5000 hn        1 MOL      0.390856
    111 H47        -0.5180    1.9380    3.1680 h1        1 MOL     -0.030533
    112 H48         2.2770    0.9140    2.8540 hc        1 MOL      0.007368
    113 H49         1.5470   -0.7820    4.7130 hc        1 MOL      0.126077
    114 H50         0.6170   -0.8990    3.2820 hc        1 MOL      0.126077
    115 H51         2.2970    3.0130    4.1430 hc        1 MOL      0.032988
    116 H52         1.0350    2.2340    5.2470 hc        1 MOL      0.032988
    117 H53         2.7300    1.5710    5.1380 hc        1 MOL      0.032988
    118 H54        -0.3280    0.4560    5.7730 hc        1 MOL      0.113999
    119 H55        -1.3050    0.1070    4.3300 hc        1 MOL      0.113999
    120 H56        -0.7100   -1.1240    5.4950 hc        1 MOL      0.113999
    121 N11        -1.2660    0.3340    1.3380 n         1 MOL     -0.409108
    122 C40        -1.8020   -0.8530    0.5620 c3        1 MOL      0.068980
    123 C41        -3.2260   -0.6920    0.0520 c         1 MOL      0.612681
    124 O16        -3.5920   -1.5980   -0.7210 o         1 MOL     -0.573954
    125 C42        -1.5170   -2.1430    1.2650 c3        1 MOL      0.437695
    126 O17        -1.8190   -1.9980    2.5760 oh        1 MOL     -0.669036
    127 H57        -1.9240    0.9670    1.7680 hn        1 MOL      0.251401
    128 H58        -1.2650   -1.1050   -0.3440 h1        1 MOL      0.020748
    129 H59        -0.4590   -2.3780    1.3200 h1        1 MOL     -0.021008
    130 H60        -1.9920   -3.0450    0.8750 h1        1 MOL     -0.021008
    131 H61        -1.4790   -2.7370    3.0770 ho        1 MOL      0.387781
    132 N12        -3.9860    0.3820    0.4200 n         1 MOL     -0.706338
    133 C43        -5.3900    0.4460   -0.0150 c3        1 MOL      0.298303
    134 C44        -5.6170    0.8050   -1.5340 c         1 MOL      0.565570
    135 O18        -4.8700    1.4860   -2.1830 o         1 MOL     -0.545670
    136 C45        -6.1650    1.3360    1.0290 c3        1 MOL     -0.270360
    137 H62        -3.5860    1.0140    1.0890 hn        1 MOL      0.357658
    138 H63        -5.9100   -0.5010    0.1270 h1        1 MOL      0.049620
    139 H64        -5.6760    2.3040    0.9050 hc        1 MOL      0.079970
    140 H65        -7.2240    1.3890    0.8070 hc        1 MOL      0.079970
    141 H66        -5.9540    0.9550    2.0290 hc        1 MOL      0.079970
    142 N13        -6.8350    0.5010   -2.0600 n         1 MOL     -0.634095
    143 C46        -8.0430   -0.1720   -1.5240 c3        1 MOL      0.408815
    144 C47        -9.1840    0.4410   -2.3270 c         1 MOL      0.299709
    145 O19        -9.0640    0.6490   -3.5480 o         1 MOL     -0.536832
    146 C48        -7.9520   -1.6760   -1.8100 c3        1 MOL     -0.179318
    147 H67        -6.8990    0.7470   -3.0350 hn        1 MOL      0.332787
    148 H68        -8.2280    0.0210   -0.4630 h1        1 MOL     -0.060066
    149 H69        -7.1710   -2.1430   -1.2080 hc        1 MOL      0.049299
    150 H70        -8.9040   -2.1610   -1.5960 hc        1 MOL      0.049299
    151 H71        -7.6740   -1.8220   -2.8490 hc        1 MOL      0.049299
    152 N14       -10.3720    0.6960   -1.8190 n         1 MOL     -0.224666
    153 C49       -10.7500    0.4090   -0.3920 c3        1 MOL     -0.229191
    154 C50       -10.0300    1.4250    0.5490 c         1 MOL      0.526781
    155 O20        -9.4800    0.9950    1.5890 o         1 MOL     -0.508928
    156 C51       -12.2290    0.3980   -0.2770 c3        1 MOL      0.024480
    157 C52       -12.8300   -0.1680    1.0450 c3        1 MOL     -0.166845
    158 C53       -14.3110   -0.4640    0.8190 c         1 MOL      0.722169
    159 O21       -14.5650   -1.6810    0.6370 o         1 MOL     -0.682874
    160 O22       -15.1120    0.4690    1.0310 o         1 MOL     -0.682874
    161 H72       -11.0390    1.0990   -2.4640 hn        1 MOL      0.273617
    162 H73       -10.3910   -0.5940   -0.1630 h1        1 MOL      0.137622
    163 H74       -12.7340   -0.0330   -1.1450 hc        1 MOL      0.019329
    164 H75       -12.5960    1.4200   -0.3730 hc        1 MOL      0.019329
    165 H76       -12.6880    0.4650    1.9150 hc        1 MOL      0.038702
    166 H77       -12.3570   -1.0830    1.4040 hc        1 MOL      0.038702
    167 N15        -9.9480    2.7240    0.1620 n         1 MOL     -0.281761
    168 C54        -9.1840    3.6940    0.9220 c3        1 MOL     -0.205322
    169 H78        -8.2270    3.2590    1.2080 h1        1 MOL      0.099057
    170 H79        -9.0110    4.5810    0.3120 h1        1 MOL      0.099057
    171 H80        -9.7380    3.9720    1.8180 h1        1 MOL      0.099057
    172 H81       -10.2400    3.0390   -0.7510 hn        1 MOL      0.255816
    173 Ca1         2.7060    0.4690   -1.1000 Ca        1 MOL      1.775040
    174 O23         2.9500    1.8520   -3.3550 oh        1 MOL     -0.827798
    175 H82         2.6650    1.4730   -4.1880 ho        1 MOL      0.412427
    176 H83         3.3590    2.6890   -3.5990 ho        1 MOL      0.412427
    177 O24         0.4800    1.2520   -2.1020 oh        1 MOL     -0.827798
    178 H84         0.5180    1.7790   -2.8930 ho        1 MOL      0.412427
    179 H85        -0.4480    1.0300   -1.9980 ho        1 MOL      0.412427
    180 O25         0.8640   -1.7460   -1.5300 oh        1 MOL     -0.827798
    181 H86        -0.0520   -1.9260   -1.7660 ho        1 MOL      0.412427
    182 H87         1.3540   -1.9100   -2.3300 ho        1 MOL      0.412427
@<TRIPOS>BOND
     1    1    2 1   
     2    1    4 1   
     3    1    5 1   
     4    1    6 1   
     5    2    3 2   
     6    2    7 1   
     7    7    8 1   
     8    7   15 1   
     9    8    9 1   
    10    8   11 1   
    11    8   16 1   
    12    9   10 2   
    13    9   19 1   
    14   11   12 1   
    15   11   17 1   
    16   11   18 1   
    17   12   13 1   
    18   12   14 1   
    19   19   20 1   
    20   19   28 1   
    21   20   21 1   
    22   20   23 1   
    23   20   29 1   
    24   21   22 2   
    25   21   41 1   
    26   23   24 1   
    27   23   30 1   
    28   23   31 1   
    29   24   25 1   
    30   24   32 1   
    31   24   33 1   
    32   25   26 1   
    33   25   34 1   
    34   25   35 1   
    35   26   27 1   
    36   26   36 1   
    37   26   37 1   
    38   27   38 1   
    39   27   39 1   
    40   27   40 1   
    41   41   42 1   
    42   41   49 1   
    43   42   43 1   
    44   42   45 1   
    45   42   50 1   
    46   43   44 2   
    47   43   53 1   
    48   45   46 1   
    49   45   51 1   
    50   45   52 1   
    51   46   47 1   
    52   46   48 1   
    53   53   54 1   
    54   53   57 1   
    55   54   55 1   
    56   54   58 1   
    57   54   59 1   
    58   55   56 2   
    59   55   60 1   
    60   60   61 1   
    61   60   68 1   
    62   61   62 1   
    63   61   64 1   
    64   61   69 1   
    65   62   63 2   
    66   62   74 1   
    67   64   65 1   
    68   64   70 1   
    69   64   71 1   
    70   65   66 1   
    71   65   67 2   
    72   66   72 1   
    73   66   73 1   
    74   74   75 1   
    75   74   78 1   
    76   75   76 1   
    77   75   79 1   
    78   75   80 1   
    79   76   77 2   
    80   76   81 1   
    81   81   82 1   
    82   81   93 1   
    83   82   83 1   
    84   82   85 1   
    85   82   94 1   
    86   83   84 2   
    87   83  102 1   
    88   85   86 1   
    89   85   95 1   
    90   85   96 1   
    91   86   87 ar  
    92   86   88 ar  
    93   87   89 ar  
    94   87   97 1   
    95   88   90 ar  
    96   88   98 1   
    97   89   91 ar  
    98   89   99 1   
    99   90   91 ar  
   100   90  100 1   
   101   91   92 1   
   102   92  101 1   
   103  102  103 1   
   104  102  110 1   
   105  103  104 1   
   106  103  106 1   
   107  103  111 1   
   108  104  105 2   
   109  104  121 1   
   110  106  107 1   
   111  106  108 1   
   112  106  112 1   
   113  107  109 1   
   114  107  113 1   
   115  107  114 1   
   116  108  115 1   
   117  108  116 1   
   118  108  117 1   
   119  109  118 1   
   120  109  119 1   
   121  109  120 1   
   122  121  122 1   
   123  121  127 1   
   124  122  123 1   
   125  122  125 1   
   126  122  128 1   
   127  123  124 2   
   128  123  132 1   
   129  125  126 1   
   130  125  129 1   
   131  125  130 1   
   132  126  131 1   
   133  132  133 1   
   134  132  137 1   
   135  133  134 1   
   136  133  136 1   
   137  133  138 1   
   138  134  135 2   
   139  134  142 1   
   140  136  139 1   
   141  136  140 1   
   142  136  141 1   
   143  142  143 1   
   144  142  147 1   
   145  143  144 1   
   146  143  146 1   
   147  143  148 1   
   148  144  145 2   
   149  144  152 1   
   150  146  149 1   
   151  146  150 1   
   152  146  151 1   
   153  152  153 1   
   154  152  161 1   
   155  153  154 1   
   156  153  156 1   
   157  153  162 1   
   158  154  155 2   
   159  154  167 1   
   160  156  157 1   
   161  156  163 1   
   162  156  164 1   
   163  157  158 1   
   164  157  165 1   
   165  157  166 1   
   166  158  159 1   
   167  158  160 1   
   168  167  168 1   
   169  167  172 1   
   170  168  169 1   
   171  168  170 1   
   172  168  171 1   
   173  174  175 1   
   174  174  176 1   
   175  177  178 1   
   176  177  179 1   
   177  180  181 1   
   178  180  182 1   
@<TRIPOS>SUBSTRUCTURE
     1 MOL         1 TEMP              0 ****  ****    0 ROOT
