@<TRIPOS>MOLECULE
MOL
  182   178     1     0     0
SMALL
resp


@<TRIPOS>ATOM
      1 C1         -6.5440    2.8500   -0.6920 c3        1 MOL     -0.347040
      2 C2         -7.6680    1.7760   -0.4620 c         1 MOL      0.687282
      3 O1         -7.5270    0.9650    0.4580 o         1 MOL     -0.509305
      4 H1         -5.6390    2.3580   -1.0490 hc        1 MOL      0.089677
      5 H2         -6.8780    3.5740   -1.4350 hc        1 MOL      0.089677
      6 H3         -6.3330    3.3620    0.2460 hc        1 MOL      0.089677
      7 N1         -8.6770    1.6770   -1.2800 n         1 MOL     -0.525065
      8 C3         -9.7690    0.8160   -1.3240 c3        1 MOL     -0.181124
      9 C4         -9.3940   -0.7100   -1.3870 c         1 MOL      0.622017
     10 O2        -10.1970   -1.5980   -1.1260 o         1 MOL     -0.575093
     11 C5        -10.9050    1.1780   -0.3230 c3        1 MOL     -0.221032
     12 C6        -11.0860    2.6820   -0.0100 c         1 MOL      0.773275
     13 O3        -11.1520    3.0880    1.1500 o         1 MOL     -0.673435
     14 O4        -11.5130    3.4330   -0.9470 o         1 MOL     -0.673435
     15 H4         -8.7890    2.5580   -1.7640 hn        1 MOL      0.296731
     16 H5        -10.2060    1.0030   -2.3120 h1        1 MOL      0.124057
     17 H6        -10.7930    0.5890    0.5820 hc        1 MOL      0.083327
     18 H7        -11.8600    0.8580   -0.7410 hc        1 MOL      0.083327
     19 N2         -8.1400   -1.0450   -1.6360 n         1 MOL     -0.354175
     20 C7         -7.5450   -2.3850   -1.6710 c3        1 MOL      0.153324
     21 C8         -6.1260   -2.4150   -1.1010 c         1 MOL      0.368361
     22 O5         -5.3970   -3.3950   -1.4060 o         1 MOL     -0.543581
     23 C9         -7.4840   -2.8420   -3.1180 c3        1 MOL     -0.005820
     24 C10        -8.7870   -3.0520   -3.8210 c3        1 MOL     -0.089722
     25 C11        -9.7170   -4.1490   -3.3730 c3        1 MOL     -0.230635
     26 C12        -8.9950   -5.5600   -3.1980 c3        1 MOL      0.151935
     27 N3         -9.9390   -6.6970   -3.2100 n4        1 MOL     -0.312806
     28 H8         -7.5740   -0.2990   -2.0040 hn        1 MOL      0.225456
     29 H9         -8.1300   -3.0560   -1.0400 h1        1 MOL      0.075070
     30 H10        -7.1080   -3.8700   -3.0860 hc        1 MOL      0.020182
     31 H11        -6.8570   -2.1640   -3.6880 hc        1 MOL      0.020182
     32 H12        -8.5510   -3.0920   -4.8770 hc        1 MOL      0.045930
     33 H13        -9.2470   -2.0630   -3.8270 hc        1 MOL      0.045930
     34 H14       -10.4910   -4.2510   -4.1270 hc        1 MOL      0.102707
     35 H15       -10.1930   -3.8470   -2.4410 hc        1 MOL      0.102707
     36 H16        -8.3350   -5.4760   -2.3250 hx        1 MOL      0.043529
     37 H17        -8.2420   -5.7670   -3.9560 hx        1 MOL      0.043529
     38 H18       -10.7160   -6.4240   -2.6080 hn        1 MOL      0.270789
     39 H19       -10.1860   -7.0950   -4.1030 hn        1 MOL      0.270789
     40 H20        -9.4660   -7.5050   -2.8270 hn        1 MOL      0.270789
     41 N4         -5.6460   -1.3910   -0.4480 n         1 MOL     -0.316274
     42 C13        -4.3540   -1.1860    0.2330 c3        1 MOL      0.107898
     43 C14        -4.4540   -0.4460    1.5990 c         1 MOL      0.472037
     44 O6         -4.4720    0.8030    1.6360 o         1 MOL     -0.491957
     45 C15        -3.2630   -0.7000   -0.7020 c3        1 MOL     -0.045895
     46 C16        -1.9170   -0.5170   -0.0310 c         1 MOL      0.754549
     47 O7         -1.6030   -1.0520    1.0510 o         1 MOL     -0.827087
     48 O8         -1.0720    0.2980   -0.4840 o         1 MOL     -0.827087
     49 H21        -6.3690   -0.6840   -0.3500 hn        1 MOL      0.182960
     50 H22        -4.0410   -2.2000    0.5040 h1        1 MOL      0.026421
     51 H23        -3.6560    0.1430   -1.2690 hc        1 MOL      0.032217
     52 H24        -3.1870   -1.4550   -1.4750 hc        1 MOL      0.032217
     53 N5         -4.4260   -1.1880    2.6960 n         1 MOL     -0.334224
     54 C17        -4.8010   -0.7450    4.0690 c3        1 MOL     -0.390341
     55 C18        -3.8520    0.1790    4.7800 c         1 MOL      0.642939
     56 O9         -4.1640    0.6000    5.9020 o         1 MOL     -0.570588
     57 H25        -4.2510   -2.1850    2.6170 hn        1 MOL      0.299500
     58 H26        -4.9120   -1.6690    4.6410 h1        1 MOL      0.185069
     59 H27        -5.7330   -0.1780    4.0270 h1        1 MOL      0.185069
     60 N6         -2.7090    0.4520    4.2180 n         1 MOL     -0.369509
     61 C19        -1.7270    1.4370    4.6730 c3        1 MOL     -0.030435
     62 C20        -1.1430    2.4540    3.6310 c         1 MOL      0.375256
     63 O10        -0.3360    3.3380    3.9350 o         1 MOL     -0.484854
     64 C21        -0.6120    0.6690    5.3730 c3        1 MOL     -0.270788
     65 C22         0.0680   -0.3460    4.4760 c         1 MOL      0.556702
     66 N7          0.0860   -1.5550    4.8280 n         1 MOL     -0.696978
     67 O11         0.3460   -0.1110    3.3630 o         1 MOL     -0.528756
     68 H28        -2.3420   -0.0550    3.4320 hn        1 MOL      0.345426
     69 H29        -2.1520    1.9450    5.5360 h1        1 MOL      0.140570
     70 H30        -1.0670    0.1580    6.2200 hc        1 MOL      0.099871
     71 H31         0.0550    1.4210    5.7840 hc        1 MOL      0.099871
     72 H32        -0.3710   -1.8170    5.6850 hn        1 MOL      0.347282
     73 H33         0.3860   -2.2240    4.1360 hn        1 MOL      0.347282
     74 N8         -1.6360    2.2850    2.3750 n         1 MOL     -0.117149
     75 C23        -1.3650    3.1980    1.2440 c3        1 MOL     -0.207167
     76 C24         0.0100    2.9820    0.6130 c         1 MOL      0.816709
     77 O12         0.7660    2.1380    1.1510 o         1 MOL     -0.716666
     78 H34        -2.1810    1.4510    2.2130 hn        1 MOL      0.123158
     79 H35        -1.4020    4.2640    1.4580 h1        1 MOL      0.109272
     80 H36        -2.0800    3.0130    0.4400 h1        1 MOL      0.109272
     81 N9          0.2790    3.5180   -0.5260 n         1 MOL     -0.612135
     82 C25         1.5920    3.6340   -1.1270 c3        1 MOL      0.410650
     83 C26         2.2320    2.3510   -1.6090 c         1 MOL      0.327437
     84 O13         1.5780    1.3330   -1.5560 o         1 MOL     -0.359835
     85 C27         1.5790    4.7310   -2.2130 c3        1 MOL     -0.277366
     86 C28         1.4100    6.1580   -1.6110 ca        1 MOL      0.073594
     87 C29         2.5060    7.0160   -1.4530 ca        1 MOL     -0.182914
     88 C30         0.1470    6.5530   -1.1440 ca        1 MOL     -0.182914
     89 C31         2.3280    8.3310   -0.9350 ca        1 MOL     -0.259973
     90 C32        -0.1380    7.8250   -0.6300 ca        1 MOL     -0.259973
     91 C33         0.9830    8.7160   -0.5380 ca        1 MOL      0.349047
     92 O14         0.8400    9.9740   -0.0610 oh        1 MOL     -0.451319
     93 H37        -0.4960    3.9930   -0.9630 hn        1 MOL      0.327213
     94 H38         2.2430    4.0020   -0.3270 h1        1 MOL     -0.021412
     95 H39         0.7330    4.4450   -2.8390 hc        1 MOL      0.096603
     96 H40         2.5050    4.7270   -2.7790 hc        1 MOL      0.096603
     97 H41         3.4810    6.6430   -1.7550 ha        1 MOL      0.118139
     98 H42        -0.6510    5.8630   -1.3590 ha        1 MOL      0.118139
     99 H43         3.2120    8.9020   -0.7100 ha        1 MOL      0.174298
    100 H44        -1.1200    8.1680   -0.3690 ha        1 MOL      0.174298
    101 H45         1.6480   10.4980   -0.1260 ho        1 MOL      0.344033
    102 N10         3.4930    2.5210   -2.0650 n         1 MOL     -0.463888
    103 C34         4.2800    1.3110   -2.4220 c3        1 MOL     -0.004073
    104 C35         5.4590    1.1280   -1.5440 c         1 MOL      0.459223
    105 O15         5.5900    0.0790   -0.8810 o         1 MOL     -0.430057
    106 C36         4.6610    1.3420   -3.8960 c3        1 MOL      0.005670
    107 C37         3.4320    1.2830   -4.7900 c3        1 MOL      0.108322
    108 C38         5.7070    0.1780   -4.1970 c3        1 MOL     -0.284448
    109 C39         2.7510   -0.1180   -4.8690 c3        1 MOL     -0.280412
    110 H46         3.9600    3.4180   -2.1400 hn        1 MOL      0.279701
    111 H47         3.6060    0.4610   -2.3390 h1        1 MOL      0.048990
    112 H48         5.1020    2.3260   -4.0890 hc        1 MOL     -0.019161
    113 H49         3.7630    1.5340   -5.7980 hc        1 MOL     -0.003032
    114 H50         2.7310    2.0500   -4.4670 hc        1 MOL     -0.003032
    115 H51         6.7050    0.4510   -3.8490 hc        1 MOL      0.084795
    116 H52         5.4330   -0.7600   -3.7110 hc        1 MOL      0.084795
    117 H53         5.8360   -0.1310   -5.2400 hc        1 MOL      0.084795
    118 H54         2.5840   -0.6470   -3.9250 hc        1 MOL      0.093150
    119 H55         1.7580    0.0220   -5.2940 hc        1 MOL      0.093150
    120 H56         3.4150   -0.6950   -5.5210 hc        1 MOL      0.093150
    121 N11         6.2590    2.2220   -1.4810 n         1 MOL     -0.399586
    122 C40         7.1860    2.4900   -0.4180 c3        1 MOL     -0.051414
    123 C41         8.0990    1.2140   -0.0930 c         1 MOL      0.508013
    124 O16         8.0700    0.8690    1.0940 o         1 MOL     -0.515182
    125 C42         8.0270    3.6480   -0.8940 c3        1 MOL      0.072696
    126 O17         8.5820    3.3350   -2.1390 oh        1 MOL     -0.642043
    127 H57         5.9560    2.9870   -2.0680 hn        1 MOL      0.325830
    128 H58         6.7320    2.7820    0.5200 h1        1 MOL      0.106668
    129 H59         8.7700    3.9780   -0.1750 h1        1 MOL      0.058263
    130 H60         7.3830    4.5200   -1.0670 h1        1 MOL      0.058263
    131 H61         8.7500    4.1670   -2.5960 ho        1 MOL      0.438550
    132 N12         8.7310    0.4640   -1.0860 n         1 MOL     -0.370163
    133 C43         9.5470   -0.7330   -0.9180 c3        1 MOL      0.271680
    134 C44         8.9550   -1.8650    0.0480 c         1 MOL      0.299263
    135 O18         9.7530   -2.6600    0.5450 o         1 MOL     -0.503223
    136 C45        10.9160   -0.2670   -0.5110 c3        1 MOL     -0.373033
    137 H62         8.6320    0.8690   -2.0040 hn        1 MOL      0.287650
    138 H63         9.5040   -1.1810   -1.9150 h1        1 MOL      0.027615
    139 H64        10.9900   -0.0370    0.5550 hc        1 MOL      0.109596
    140 H65        11.5890   -1.1300   -0.5990 hc        1 MOL      0.109596
    141 H66        11.2650    0.4990   -1.2000 hc        1 MOL      0.109596
    142 N13         7.6630   -1.9450    0.3030 n         1 MOL     -0.158040
    143 C46         7.0350   -2.8950    1.2110 c3        1 MOL      0.477578
    144 C47         5.8660   -3.5920    0.5320 c         1 MOL      0.003853
    145 O19         5.2580   -2.9830   -0.3490 o         1 MOL     -0.356193
    146 C48         6.6020   -2.3240    2.5540 c3        1 MOL     -0.273383
    147 H67         7.0750   -1.2990   -0.2130 hn        1 MOL      0.051749
    148 H68         7.8410   -3.6290    1.3390 h1        1 MOL     -0.048734
    149 H69         7.3430   -1.6660    3.0250 hc        1 MOL      0.067243
    150 H70         5.6680   -1.7830    2.3890 hc        1 MOL      0.067243
    151 H71         6.3600   -3.1370    3.2310 hc        1 MOL      0.067243
    152 N14         5.4400   -4.7420    1.0720 n         1 MOL     -0.122643
    153 C49         4.2760   -5.5700    0.5830 c3        1 MOL      0.107388
    154 C50         4.5690   -6.0350   -0.8850 c         1 MOL      0.346687
    155 O20         3.6950   -6.1750   -1.7570 o         1 MOL     -0.484146
    156 C51         2.8900   -4.9510    0.9580 c3        1 MOL      0.026533
    157 C52         2.7880   -4.3550    2.3450 c3        1 MOL     -0.043785
    158 C53         1.3870   -3.8180    2.6030 c         1 MOL      0.643427
    159 O21         0.9780   -2.7350    2.1710 o         1 MOL     -0.664226
    160 O22         0.5870   -4.5150    3.3060 o         1 MOL     -0.664226
    161 H72         5.9500   -5.0840    1.8720 hn        1 MOL      0.208155
    162 H73         4.4780   -6.5120    1.0940 h1        1 MOL      0.019061
    163 H74         2.1110   -5.6950    0.7880 hc        1 MOL      0.011592
    164 H75         2.7250   -4.1140    0.2880 hc        1 MOL      0.011592
    165 H76         3.4700   -3.5180    2.4140 hc        1 MOL     -0.050008
    166 H77         2.9260   -5.1040    3.1270 hc        1 MOL     -0.050008
    167 N15         5.8430   -6.3020   -1.1780 n         1 MOL     -0.141451
    168 C54         6.3850   -6.5330   -2.4920 c3        1 MOL     -0.280311
    169 H78         7.3810   -6.9660   -2.4020 h1        1 MOL      0.119043
    170 H79         5.7380   -7.2200   -3.0370 h1        1 MOL      0.119043
    171 H80         6.4480   -5.5880   -3.0310 h1        1 MOL      0.119043
    172 H81         6.4220   -6.3890   -0.3610 hn        1 MOL      0.166768
    173 Ca1         1.0800   -0.4420    0.9690 Ca        1 MOL      1.759109
    174 O23         0.5110   -2.2580   -0.9140 oh        1 MOL     -0.824779
    175 H82         0.7080   -2.7770   -1.6900 ho        1 MOL      0.411146
    176 H83        -0.0300   -2.8240   -0.3700 ho        1 MOL      0.411146
    177 O24         3.2620   -1.1870   -0.3420 oh        1 MOL     -0.824779
    178 H84         3.8440   -1.9400   -0.3070 ho        1 MOL      0.411146
    179 H85         3.8110   -0.4400   -0.1010 ho        1 MOL      0.411146
    180 O25         3.2570   -0.7710    2.8770 oh        1 MOL     -0.824779
    181 H86         3.2200   -1.5880    3.3700 ho        1 MOL      0.411146
    182 H87         4.1710   -0.4850    2.9430 ho        1 MOL      0.411146
@<TRIPOS>BOND
     1    1    2 1   
     2    1    4 1   
     3    1    5 1   
     4    1    6 1   
     5    2    3 2   
     6    2    7 1   
     7    7    8 1   
     8    7   15 1   
     9    8    9 1   
    10    8   11 1   
    11    8   16 1   
    12    9   10 2   
    13    9   19 1   
    14   11   12 1   
    15   11   17 1   
    16   11   18 1   
    17   12   13 1   
    18   12   14 1   
    19   19   20 1   
    20   19   28 1   
    21   20   21 1   
    22   20   23 1   
    23   20   29 1   
    24   21   22 2   
    25   21   41 1   
    26   23   24 1   
    27   23   30 1   
    28   23   31 1   
    29   24   25 1   
    30   24   32 1   
    31   24   33 1   
    32   25   26 1   
    33   25   34 1   
    34   25   35 1   
    35   26   27 1   
    36   26   36 1   
    37   26   37 1   
    38   27   38 1   
    39   27   39 1   
    40   27   40 1   
    41   41   42 1   
    42   41   49 1   
    43   42   43 1   
    44   42   45 1   
    45   42   50 1   
    46   43   44 2   
    47   43   53 1   
    48   45   46 1   
    49   45   51 1   
    50   45   52 1   
    51   46   47 1   
    52   46   48 1   
    53   53   54 1   
    54   53   57 1   
    55   54   55 1   
    56   54   58 1   
    57   54   59 1   
    58   55   56 2   
    59   55   60 1   
    60   60   61 1   
    61   60   68 1   
    62   61   62 1   
    63   61   64 1   
    64   61   69 1   
    65   62   63 2   
    66   62   74 1   
    67   64   65 1   
    68   64   70 1   
    69   64   71 1   
    70   65   66 1   
    71   65   67 2   
    72   66   72 1   
    73   66   73 1   
    74   74   75 1   
    75   74   78 1   
    76   75   76 1   
    77   75   79 1   
    78   75   80 1   
    79   76   77 2   
    80   76   81 1   
    81   81   82 1   
    82   81   93 1   
    83   82   83 1   
    84   82   85 1   
    85   82   94 1   
    86   83   84 2   
    87   83  102 1   
    88   85   86 1   
    89   85   95 1   
    90   85   96 1   
    91   86   87 ar  
    92   86   88 ar  
    93   87   89 ar  
    94   87   97 1   
    95   88   90 ar  
    96   88   98 1   
    97   89   91 ar  
    98   89   99 1   
    99   90   91 ar  
   100   90  100 1   
   101   91   92 1   
   102   92  101 1   
   103  102  103 1   
   104  102  110 1   
   105  103  104 1   
   106  103  106 1   
   107  103  111 1   
   108  104  105 2   
   109  104  121 1   
   110  106  107 1   
   111  106  108 1   
   112  106  112 1   
   113  107  109 1   
   114  107  113 1   
   115  107  114 1   
   116  108  115 1   
   117  108  116 1   
   118  108  117 1   
   119  109  118 1   
   120  109  119 1   
   121  109  120 1   
   122  121  122 1   
   123  121  127 1   
   124  122  123 1   
   125  122  125 1   
   126  122  128 1   
   127  123  124 2   
   128  123  132 1   
   129  125  126 1   
   130  125  129 1   
   131  125  130 1   
   132  126  131 1   
   133  132  133 1   
   134  132  137 1   
   135  133  134 1   
   136  133  136 1   
   137  133  138 1   
   138  134  135 2   
   139  134  142 1   
   140  136  139 1   
   141  136  140 1   
   142  136  141 1   
   143  142  143 1   
   144  142  147 1   
   145  143  144 1   
   146  143  146 1   
   147  143  148 1   
   148  144  145 2   
   149  144  152 1   
   150  146  149 1   
   151  146  150 1   
   152  146  151 1   
   153  152  153 1   
   154  152  161 1   
   155  153  154 1   
   156  153  156 1   
   157  153  162 1   
   158  154  155 2   
   159  154  167 1   
   160  156  157 1   
   161  156  163 1   
   162  156  164 1   
   163  157  158 1   
   164  157  165 1   
   165  157  166 1   
   166  158  159 1   
   167  158  160 1   
   168  167  168 1   
   169  167  172 1   
   170  168  169 1   
   171  168  170 1   
   172  168  171 1   
   173  174  175 1   
   174  174  176 1   
   175  177  178 1   
   176  177  179 1   
   177  180  181 1   
   178  180  182 1   
@<TRIPOS>SUBSTRUCTURE
     1 MOL         1 TEMP              0 ****  ****    0 ROOT
