@<TRIPOS>MOLECULE
MOL
  178   175     1     0     0
SMALL
resp


@<TRIPOS>ATOM
      1 C1          1.2420    6.9910   -2.9010 c3        1 MOL     -0.420947
      2 C2          2.2340    6.3000   -2.0150 c         1 MOL      0.775717
      3 O1          2.2820    6.6110   -0.8540 o         1 MOL     -0.590525
      4 H1          0.2900    6.4630   -2.8600 hc        1 MOL      0.098378
      5 H2          1.1030    8.0180   -2.5620 hc        1 MOL      0.098378
      6 H3          1.6110    6.9930   -3.9270 hc        1 MOL      0.098378
      7 N1          3.0680    5.4520   -2.5820 n         1 MOL     -0.645295
      8 C3          4.2290    4.9370   -1.8940 c3        1 MOL      0.234833
      9 C4          3.8820    3.9800   -0.6480 c         1 MOL      0.557756
     10 O2          2.9830    3.1290   -0.7470 o         1 MOL     -0.567901
     11 C5          5.0610    4.1260   -2.9310 c3        1 MOL     -0.242393
     12 C6          6.5450    4.0980   -2.4830 c         1 MOL      0.729061
     13 O3          7.1490    5.1490   -2.3060 o         1 MOL     -0.727971
     14 O4          7.0460    2.9610   -2.2930 o         1 MOL     -0.727971
     15 H4          2.9340    5.1110   -3.5170 hn        1 MOL      0.315403
     16 H5          4.7500    5.8460   -1.6010 h1        1 MOL      0.050940
     17 H6          4.9900    4.6820   -3.8640 hc        1 MOL      0.020753
     18 H7          4.7410    3.0980   -3.0000 hc        1 MOL      0.020753
     19 N2          4.6460    4.1080    0.4410 n         1 MOL     -0.655417
     20 C7          4.6450    3.2610    1.5890 c3        1 MOL      0.689516
     21 C8          3.3810    3.5040    2.4250 c         1 MOL      0.272521
     22 O5          2.6610    4.4670    2.2760 o         1 MOL     -0.502263
     23 C9          5.8990    3.6490    2.3130 c3        1 MOL     -0.264040
     24 H8          5.2250    4.9310    0.4850 hn        1 MOL      0.304117
     25 H9          4.7900    2.2270    1.2940 h1        1 MOL      0.023162
     26 H10         6.8300    3.5750    1.7640 hc        1 MOL      0.045237
     27 H11         5.7240    4.6230    2.7660 hc        1 MOL      0.045237
     28 H12         5.9410    3.0150    3.2020 hc        1 MOL      0.045237
     29 N3          2.9330    2.7310    3.4000 n         1 MOL     -0.302392
     30 C10         3.5680    1.4980    3.9850 c3        1 MOL     -0.240642
     31 C11         4.1680    0.4470    3.0730 c         1 MOL      0.663458
     32 O6          3.5840    0.0570    2.0790 o         1 MOL     -0.652288
     33 C12         2.5440    0.9350    5.0070 c3        1 MOL     -0.206902
     34 C13         1.1130    0.7710    4.5050 c         1 MOL      0.708976
     35 O7          0.9000    0.4920    3.3130 o         1 MOL     -0.689290
     36 O8          0.1710    1.0130    5.3320 o         1 MOL     -0.689290
     37 H13         2.0670    3.0370    3.8000 hn        1 MOL      0.314243
     38 H14         4.4190    1.9070    4.5210 h1        1 MOL      0.093196
     39 H15         2.5610    1.5540    5.9030 hc        1 MOL      0.057500
     40 H16         2.9120   -0.0170    5.3860 hc        1 MOL      0.057500
     41 N4          5.3920    0.0190    3.4030 n         1 MOL     -0.377248
     42 C14         6.2240   -0.8950    2.5740 c3        1 MOL     -0.077605
     43 C15         6.3420   -0.4330    1.1260 c         1 MOL      0.506116
     44 O9          6.5560    0.7630    0.9290 o         1 MOL     -0.538474
     45 H17         5.8260    0.2480    4.2890 hn        1 MOL      0.257126
     46 H18         5.8090   -1.8970    2.7020 h1        1 MOL      0.067704
     47 H19         7.2440   -0.8700    2.9590 h1        1 MOL      0.067704
     48 N5          6.3940   -1.2650    0.1200 n         1 MOL     -0.225851
     49 C16         6.2390   -2.7010   -0.0120 c3        1 MOL     -0.072573
     50 C17         5.6270   -3.1720   -1.3240 c         1 MOL      0.506442
     51 O10         5.3410   -4.3380   -1.3810 o         1 MOL     -0.492625
     52 C18         7.5930   -3.3450    0.3250 c3        1 MOL     -0.236978
     53 C19         8.6320   -3.0590   -0.6680 c         1 MOL      0.638278
     54 N6          9.6150   -2.1690   -0.3020 n         1 MOL     -0.818261
     55 O11         8.5100   -3.5140   -1.7770 o         1 MOL     -0.521827
     56 H20         6.5140   -0.8330   -0.7910 hn        1 MOL      0.221547
     57 H21         5.5580   -3.1530    0.7150 h1        1 MOL      0.128644
     58 H22         7.4620   -4.4290    0.3200 hc        1 MOL      0.076934
     59 H23         7.8840   -2.8910    1.2680 hc        1 MOL      0.076934
     60 H24         9.7270   -1.8940    0.6600 hn        1 MOL      0.374526
     61 H25        10.3570   -1.9760   -0.9600 hn        1 MOL      0.374526
     62 N7          5.2910   -2.3230   -2.2830 n         1 MOL     -0.219691
     63 C20         4.6300   -2.7230   -3.5440 c3        1 MOL     -0.407475
     64 C21         3.2970   -3.3470   -3.4360 c         1 MOL      0.607765
     65 O12         2.6700   -3.6900   -4.4830 o         1 MOL     -0.581826
     66 H26         5.4150   -1.3350   -2.0910 hn        1 MOL      0.260124
     67 H27         5.2950   -3.4520   -4.0190 h1        1 MOL      0.184568
     68 H28         4.5350   -1.8600   -4.2040 h1        1 MOL      0.184568
     69 N8          2.7280   -3.5090   -2.2440 n         1 MOL     -0.236828
     70 C22         1.5300   -4.2450   -1.9970 c3        1 MOL     -0.091984
     71 C23         0.3930   -3.2870   -1.5240 c         1 MOL      0.511643
     72 O13         0.6650   -2.2500   -0.9220 o         1 MOL     -0.617137
     73 C24         1.7520   -5.2540   -0.8400 c3        1 MOL      0.350889
     74 C25         2.5630   -6.4590   -1.3280 c3        1 MOL     -0.228131
     75 O14         2.5860   -4.9020    0.2540 oh        1 MOL     -0.637304
     76 H29         3.2970   -3.2240   -1.4630 hn        1 MOL      0.235682
     77 H30         1.0950   -4.8530   -2.7930 h1        1 MOL      0.089572
     78 H31         0.7820   -5.6590   -0.5280 h1        1 MOL      0.013164
     79 H32         1.9940   -5.1040    0.9880 ho        1 MOL      0.420864
     80 H33         2.0720   -7.0340   -2.1090 hc        1 MOL      0.055710
     81 H34         3.4690   -6.0870   -1.8020 hc        1 MOL      0.055710
     82 H35         2.7990   -7.2370   -0.5970 hc        1 MOL      0.055710
     83 N9         -0.8700   -3.7040   -1.6910 n         1 MOL     -0.257434
     84 C26        -2.0880   -2.9800   -1.3380 c3        1 MOL     -0.170069
     85 C27        -2.5350   -3.4180    0.0800 c         1 MOL      0.427776
     86 O15        -2.7480   -4.5940    0.3490 o         1 MOL     -0.581135
     87 C28        -3.1160   -3.1220   -2.4820 c3        1 MOL     -0.014093
     88 C29        -4.5580   -2.5910   -2.2050 c3        1 MOL      0.174594
     89 C30        -2.5530   -2.5700   -3.8170 c3        1 MOL     -0.121385
     90 C31        -5.5160   -3.0050   -3.3350 c3        1 MOL     -0.115262
     91 H36        -1.0270   -4.5680   -2.1820 hn        1 MOL      0.237612
     92 H37        -1.8810   -1.9120   -1.3800 h1        1 MOL      0.190069
     93 H38        -3.1190   -4.1990   -2.6410 hc        1 MOL      0.034991
     94 H39        -4.6890   -1.5300   -1.9730 hc        1 MOL     -0.025399
     95 H40        -4.8420   -3.1410   -1.3060 hc        1 MOL     -0.025399
     96 H41        -2.5260   -1.4840   -3.8670 hc        1 MOL      0.021397
     97 H42        -1.5520   -2.9300   -4.0280 hc        1 MOL      0.021397
     98 H43        -3.1350   -2.8310   -4.7050 hc        1 MOL      0.021397
     99 H44        -5.2310   -3.9930   -3.7030 hc        1 MOL      0.013606
    100 H45        -6.5680   -3.1050   -3.0850 hc        1 MOL      0.013606
    101 H46        -5.4260   -2.2120   -4.0780 hc        1 MOL      0.013606
    102 N10        -2.7040   -2.4880    0.9810 n         1 MOL     -0.000784
    103 C32        -3.1290   -2.5770    2.4050 c3        1 MOL      0.016215
    104 C33        -4.5640   -2.0740    2.6320 c         1 MOL      0.456148
    105 O16        -5.2330   -2.5330    3.5690 o         1 MOL     -0.545714
    106 C34        -2.1050   -1.9140    3.3370 c3        1 MOL      0.038126
    107 C35        -0.7810   -2.6140    3.1780 c         1 MOL      0.666742
    108 O17        -0.6100   -3.7220    3.7310 o         1 MOL     -0.728992
    109 O18         0.0730   -2.1480    2.4550 o         1 MOL     -0.728992
    110 H47        -2.4340   -1.5730    0.6390 hn        1 MOL     -0.043770
    111 H48        -3.0610   -3.6060    2.7530 h1        1 MOL      0.066793
    112 H49        -2.5190   -2.1560    4.3130 hc        1 MOL      0.001496
    113 H50        -2.0670   -0.8260    3.2150 hc        1 MOL      0.001496
    114 N11        -5.0490   -1.2000    1.7220 n         1 MOL     -0.682641
    115 C36        -6.3550   -0.5770    1.6220 c3        1 MOL      0.573156
    116 C37        -6.3680    0.8240    0.9900 c         1 MOL      0.144946
    117 O19        -7.0920    1.1700    0.0380 o         1 MOL     -0.447201
    118 C38        -7.2080   -1.6300    0.9180 c3        1 MOL     -0.217454
    119 C39        -8.6130   -1.2340    0.5970 ca        1 MOL     -0.053484
    120 C40        -9.1240   -1.6860   -0.6550 ca        1 MOL     -0.048173
    121 C41        -9.3610   -0.3690    1.4050 ca        1 MOL     -0.048173
    122 C42       -10.4250   -1.3330   -1.0440 ca        1 MOL     -0.200412
    123 C43       -10.7340   -0.0820    1.0380 ca        1 MOL     -0.200412
    124 C44       -11.1890   -0.5430   -0.2100 ca        1 MOL     -0.040667
    125 H51        -4.3510   -0.9260    1.0430 hn        1 MOL      0.415586
    126 H52        -6.8790   -0.4650    2.5740 h1        1 MOL     -0.036175
    127 H53        -7.1260   -2.5240    1.5420 hc        1 MOL      0.093074
    128 H54        -6.6730   -1.8620   -0.0010 hc        1 MOL      0.093074
    129 H55        -8.5220   -2.2060   -1.3800 ha        1 MOL      0.090673
    130 H56        -8.9830   -0.1760    2.3930 ha        1 MOL      0.090673
    131 H57       -10.7610   -1.6060   -2.0320 ha        1 MOL      0.115603
    132 H58       -11.3850    0.4040    1.7480 ha        1 MOL      0.115603
    133 H59       -12.1890   -0.3240   -0.5450 ha        1 MOL      0.066129
    134 N12        -5.5260    1.7230    1.5120 n         1 MOL      0.024759
    135 C45        -5.6840    3.0860    1.1290 c3        1 MOL     -0.004367
    136 C46        -5.2760    3.3930   -0.3960 c         1 MOL      0.194416
    137 O20        -5.6200    4.4840   -0.9000 o         1 MOL     -0.523087
    138 C47        -4.7640    3.8570    2.0950 c3        1 MOL     -0.150183
    139 C48        -4.6440    3.0130    3.3590 c3        1 MOL      0.020738
    140 C49        -4.7330    1.5880    2.7590 c3        1 MOL     -0.065915
    141 H60        -6.7190    3.3790    1.2650 h1        1 MOL      0.085630
    142 H61        -3.8220    4.0460    1.5870 hc        1 MOL      0.066716
    143 H62        -5.1990    4.7850    2.4750 hc        1 MOL      0.066716
    144 H63        -3.7340    3.1770    3.9480 hc        1 MOL      0.020300
    145 H64        -5.5410    3.1950    3.9520 hc        1 MOL      0.020300
    146 H65        -3.7900    1.1010    2.5240 h1        1 MOL      0.065546
    147 H66        -5.2060    0.9170    3.4740 h1        1 MOL      0.065546
    148 N13        -4.6880    2.4910   -1.1020 n         1 MOL      0.099093
    149 C50        -3.9670    2.7320   -2.3850 c3        1 MOL     -0.184129
    150 C51        -5.0180    2.7310   -3.4930 c         1 MOL      0.505334
    151 O21        -4.9270    3.5760   -4.4060 o         1 MOL     -0.538027
    152 C52        -2.8690    1.6830   -2.6910 c3        1 MOL      0.149026
    153 C53        -1.8540    1.5960   -1.5770 c3        1 MOL     -0.028954
    154 C54        -2.2760    0.5950   -0.4560 c         1 MOL      0.723497
    155 O22        -1.4070    0.1290    0.3730 o         1 MOL     -0.712025
    156 O23        -3.4730    0.1760   -0.2970 o         1 MOL     -0.712025
    157 H67        -4.4180    1.5810   -0.7400 hn        1 MOL      0.085405
    158 H68        -3.5440    3.7420   -2.3870 h1        1 MOL      0.108114
    159 H69        -2.4190    2.0470   -3.6170 hc        1 MOL     -0.043147
    160 H70        -3.3570    0.7290   -2.8880 hc        1 MOL     -0.043147
    161 H71        -1.6790    2.6210   -1.2270 hc        1 MOL      0.012206
    162 H72        -0.9400    1.1780   -1.9970 hc        1 MOL      0.012206
    163 N14        -5.9250    1.7000   -3.4200 n         1 MOL     -0.233573
    164 C55        -7.1840    1.7050   -4.1650 c3        1 MOL     -0.322604
    165 H73        -7.7780    0.8370   -3.8790 h1        1 MOL      0.121843
    166 H74        -7.7380    2.6150   -3.9380 h1        1 MOL      0.121843
    167 H75        -6.9740    1.6640   -5.2350 h1        1 MOL      0.121843
    168 H76        -5.6870    0.9430   -2.7920 hn        1 MOL      0.243620
    169 Ca1         1.2340   -0.5180    0.9740 Ca        1 MOL      1.802759
    170 O24         0.8470    2.0460    0.2020 oh        1 MOL     -0.938876
    171 H77         1.4800    2.6880   -0.1000 ho        1 MOL      0.437106
    172 H78         0.1110    2.5630    0.5340 ho        1 MOL      0.437106
    173 O25         3.1360    0.4240   -0.8780 oh        1 MOL     -0.938876
    174 H79         3.8500    0.3600   -1.5040 ho        1 MOL      0.437106
    175 H80         2.9590    1.3660   -0.8070 ho        1 MOL      0.437106
    176 O26         3.0060   -2.5010    1.2660 oh        1 MOL     -0.938876
    177 H81         3.4240   -2.5410    2.1290 ho        1 MOL      0.437106
    178 H82         2.9210   -3.4050    0.9920 ho        1 MOL      0.437106
@<TRIPOS>BOND
     1    1    2 1   
     2    1    4 1   
     3    1    5 1   
     4    1    6 1   
     5    2    3 2   
     6    2    7 1   
     7    7    8 1   
     8    7   15 1   
     9    8    9 1   
    10    8   11 1   
    11    8   16 1   
    12    9   10 2   
    13    9   19 1   
    14   11   12 1   
    15   11   17 1   
    16   11   18 1   
    17   12   13 1   
    18   12   14 1   
    19   19   20 1   
    20   19   24 1   
    21   20   21 1   
    22   20   23 1   
    23   20   25 1   
    24   21   22 2   
    25   21   29 1   
    26   23   26 1   
    27   23   27 1   
    28   23   28 1   
    29   29   30 1   
    30   29   37 1   
    31   30   31 1   
    32   30   33 1   
    33   30   38 1   
    34   31   32 2   
    35   31   41 1   
    36   33   34 1   
    37   33   39 1   
    38   33   40 1   
    39   34   35 1   
    40   34   36 1   
    41   41   42 1   
    42   41   45 1   
    43   42   43 1   
    44   42   46 1   
    45   42   47 1   
    46   43   44 2   
    47   43   48 1   
    48   48   49 1   
    49   48   56 1   
    50   49   50 1   
    51   49   52 1   
    52   49   57 1   
    53   50   51 2   
    54   50   62 1   
    55   52   53 1   
    56   52   58 1   
    57   52   59 1   
    58   53   54 1   
    59   53   55 2   
    60   54   60 1   
    61   54   61 1   
    62   62   63 1   
    63   62   66 1   
    64   63   64 1   
    65   63   67 1   
    66   63   68 1   
    67   64   65 2   
    68   64   69 1   
    69   69   70 1   
    70   69   76 1   
    71   70   71 1   
    72   70   73 1   
    73   70   77 1   
    74   71   72 2   
    75   71   83 1   
    76   73   74 1   
    77   73   75 1   
    78   73   78 1   
    79   74   80 1   
    80   74   81 1   
    81   74   82 1   
    82   75   79 1   
    83   83   84 1   
    84   83   91 1   
    85   84   85 1   
    86   84   87 1   
    87   84   92 1   
    88   85   86 2   
    89   85  102 1   
    90   87   88 1   
    91   87   89 1   
    92   87   93 1   
    93   88   90 1   
    94   88   94 1   
    95   88   95 1   
    96   89   96 1   
    97   89   97 1   
    98   89   98 1   
    99   90   99 1   
   100   90  100 1   
   101   90  101 1   
   102  102  103 1   
   103  102  110 1   
   104  103  104 1   
   105  103  106 1   
   106  103  111 1   
   107  104  105 2   
   108  104  114 1   
   109  106  107 1   
   110  106  112 1   
   111  106  113 1   
   112  107  108 1   
   113  107  109 1   
   114  114  115 1   
   115  114  125 1   
   116  115  116 1   
   117  115  118 1   
   118  115  126 1   
   119  116  117 2   
   120  116  134 1   
   121  118  119 1   
   122  118  127 1   
   123  118  128 1   
   124  119  120 ar  
   125  119  121 ar  
   126  120  122 ar  
   127  120  129 1   
   128  121  123 ar  
   129  121  130 1   
   130  122  124 ar  
   131  122  131 1   
   132  123  124 ar  
   133  123  132 1   
   134  124  133 1   
   135  134  135 1   
   136  134  140 1   
   137  135  136 1   
   138  135  138 1   
   139  135  141 1   
   140  136  137 2   
   141  136  148 1   
   142  138  139 1   
   143  138  142 1   
   144  138  143 1   
   145  139  140 1   
   146  139  144 1   
   147  139  145 1   
   148  140  146 1   
   149  140  147 1   
   150  148  149 1   
   151  148  157 1   
   152  149  150 1   
   153  149  152 1   
   154  149  158 1   
   155  150  151 2   
   156  150  163 1   
   157  152  153 1   
   158  152  159 1   
   159  152  160 1   
   160  153  154 1   
   161  153  161 1   
   162  153  162 1   
   163  154  155 1   
   164  154  156 1   
   165  163  164 1   
   166  163  168 1   
   167  164  165 1   
   168  164  166 1   
   169  164  167 1   
   170  170  171 1   
   171  170  172 1   
   172  173  174 1   
   173  173  175 1   
   174  176  177 1   
   175  176  178 1   
@<TRIPOS>SUBSTRUCTURE
     1 MOL         1 TEMP              0 ****  ****    0 ROOT
