@<TRIPOS>MOLECULE
MOL
  175   173     1     0     0
SMALL
resp


@<TRIPOS>ATOM
      1 C1         -7.5490    7.3540    1.8900 c3        1 MOL     -0.402695
      2 C2         -8.5170    6.6600    0.8440 c         1 MOL      0.747260
      3 O1         -8.6870    7.2380   -0.2120 o         1 MOL     -0.586835
      4 H1         -6.5660    6.8850    1.8420 hc        1 MOL      0.090840
      5 H2         -7.4560    8.4140    1.6540 hc        1 MOL      0.090840
      6 H3         -7.9560    7.2400    2.8950 hc        1 MOL      0.090840
      7 N1         -9.0510    5.4850    1.1130 n         1 MOL     -0.590833
      8 C3         -9.8540    4.7780    0.1720 c3        1 MOL      0.128579
      9 C4         -9.1630    3.4930   -0.3710 c         1 MOL      0.526610
     10 O2         -9.8570    2.7020   -1.0980 o         1 MOL     -0.523436
     11 C5        -11.2200    4.6140    0.8800 c3        1 MOL     -0.232078
     12 C6        -12.3320    3.9020    0.1000 c         1 MOL      0.736792
     13 O3        -12.4730    2.7260    0.3900 o         1 MOL     -0.741913
     14 O4        -13.1490    4.5690   -0.5840 o         1 MOL     -0.741913
     15 H4         -8.8070    4.9730    1.9470 hn        1 MOL      0.300457
     16 H5         -9.9880    5.4180   -0.7000 h1        1 MOL      0.076701
     17 H6        -11.7110    5.5570    1.1170 hc        1 MOL      0.032846
     18 H7        -11.0440    4.0020    1.7630 hc        1 MOL      0.032846
     19 N2         -7.8650    3.3170   -0.2070 n         1 MOL     -0.478333
     20 C7         -6.9560    2.3730   -0.8920 c3        1 MOL      0.338318
     21 C8         -5.7130    1.9500    0.0190 c         1 MOL      0.388885
     22 O5         -5.3020    2.6340    0.9410 o         1 MOL     -0.533584
     23 C9         -6.5480    3.0210   -2.2480 c3        1 MOL     -0.363527
     24 H8         -7.4630    4.0120    0.4110 hn        1 MOL      0.218351
     25 H9         -7.4180    1.3940   -0.9630 h1        1 MOL     -0.032317
     26 H10        -6.1040    2.2420   -2.8730 hc        1 MOL      0.104068
     27 H11        -7.4510    3.4940   -2.6100 hc        1 MOL      0.104068
     28 H12        -5.7890    3.7840   -2.0340 hc        1 MOL      0.104068
     29 N3         -5.1530    0.8110   -0.1950 n         1 MOL     -0.284719
     30 C10        -5.3300   -0.1350   -1.3260 c3        1 MOL      0.035389
     31 C11        -5.3510   -1.5770   -0.6930 c         1 MOL      0.324956
     32 O6         -4.6340   -1.8020    0.2980 o         1 MOL     -0.448774
     33 C12        -4.1450   -0.1120   -2.2720 c3        1 MOL     -0.121628
     34 C13        -2.7790   -0.3880   -1.7140 c         1 MOL      0.791053
     35 O7         -2.0950   -1.3060   -2.2140 o         1 MOL     -0.741641
     36 O8         -2.2810    0.3230   -0.8370 o         1 MOL     -0.741641
     37 H13        -4.5830    0.4760    0.5630 hn        1 MOL      0.274495
     38 H14        -6.2550    0.0400   -1.8830 h1        1 MOL      0.094638
     39 H15        -3.9910    0.8670   -2.7310 hc        1 MOL      0.013731
     40 H16        -4.3540   -0.7760   -3.1080 hc        1 MOL      0.013731
     41 N4         -6.2170   -2.4330   -1.2580 n         1 MOL     -0.337885
     42 C14        -6.4560   -3.8010   -0.8490 c3        1 MOL      0.034652
     43 C15        -6.1230   -4.7970   -1.9590 c         1 MOL      0.473800
     44 O9         -7.0510   -5.4180   -2.4950 o         1 MOL     -0.554357
     45 H17        -6.9600   -2.0840   -1.8420 hn        1 MOL      0.287705
     46 H18        -7.4870   -3.9660   -0.5340 h1        1 MOL      0.070936
     47 H19        -5.9690   -4.0630    0.0920 h1        1 MOL      0.070936
     48 N5         -4.8890   -5.1040   -2.3640 n         1 MOL     -0.414891
     49 C16        -3.7440   -4.5890   -1.6230 c3        1 MOL     -0.068507
     50 C17        -3.5840   -5.2590   -0.2430 c         1 MOL      0.507803
     51 O10        -3.4910   -6.4950   -0.1140 o         1 MOL     -0.527565
     52 C18        -2.5090   -4.8730   -2.4840 c3        1 MOL      0.007144
     53 C19        -1.2020   -4.1670   -1.8880 c         1 MOL      0.473720
     54 N6         -0.1420   -4.3270   -2.6440 n         1 MOL     -0.759252
     55 O11        -1.2240   -3.5970   -0.8320 o         1 MOL     -0.552493
     56 H20        -4.7360   -5.5770   -3.2470 hn        1 MOL      0.309346
     57 H21        -3.6870   -3.5010   -1.6070 h1        1 MOL      0.083923
     58 H22        -2.6060   -4.6130   -3.5400 hc        1 MOL      0.029976
     59 H23        -2.3810   -5.9600   -2.4580 hc        1 MOL      0.029976
     60 H24        -0.0430   -5.0870   -3.2960 hn        1 MOL      0.373733
     61 H25         0.6620   -3.9120   -2.1990 hn        1 MOL      0.373733
     62 N7         -3.5760   -4.4490    0.8360 n         1 MOL     -0.120954
     63 C20        -3.3280   -4.8530    2.1820 c3        1 MOL     -0.332866
     64 C21        -1.8890   -5.2480    2.5830 c         1 MOL      0.632355
     65 O12        -1.7120   -6.0630    3.4550 o         1 MOL     -0.570990
     66 H26        -3.8580   -3.4880    0.7810 hn        1 MOL      0.216365
     67 H27        -3.9290   -5.6950    2.5300 h1        1 MOL      0.105404
     68 H28        -3.5470   -3.9330    2.7300 h1        1 MOL      0.105404
     69 N8         -0.9050   -4.7650    1.8580 n         1 MOL     -0.351436
     70 C22         0.5010   -4.9260    2.2010 c3        1 MOL     -0.051306
     71 C23         1.1620   -3.5450    2.2210 c         1 MOL      0.514327
     72 O13         0.6430   -2.5890    1.5780 o         1 MOL     -0.549649
     73 C24         1.2560   -5.8830    1.2330 c3        1 MOL      0.509586
     74 C25         0.8180   -7.3160    1.2160 c3        1 MOL     -0.551903
     75 O14         1.2390   -5.5660   -0.1240 oh        1 MOL     -0.547056
     76 H29        -1.1200   -3.9480    1.3150 hn        1 MOL      0.271595
     77 H30         0.6770   -5.3170    3.2060 h1        1 MOL      0.054318
     78 H31         2.2830   -5.9580    1.6050 h1        1 MOL     -0.042815
     79 H32         1.3720   -4.6150   -0.2410 ho        1 MOL      0.260758
     80 H33        -0.2170   -7.3800    0.8900 hc        1 MOL      0.138912
     81 H34         1.3660   -7.8760    0.4580 hc        1 MOL      0.138912
     82 H35         0.8400   -7.7210    2.2230 hc        1 MOL      0.138912
     83 N9          2.2900   -3.3560    2.9230 n         1 MOL     -0.454411
     84 C26         3.2630   -2.3200    2.7150 c3        1 MOL     -0.008302
     85 C27         4.2130   -2.8630    1.5890 c         1 MOL      0.293182
     86 O15         4.7440   -3.9720    1.7270 o         1 MOL     -0.530858
     87 C28         3.9090   -1.8400    4.0330 c3        1 MOL      0.402398
     88 C29         4.5180   -0.3980    3.9350 c3        1 MOL     -0.081494
     89 C30         2.9920   -1.9010    5.2850 c3        1 MOL     -0.504992
     90 C31         5.7910   -0.2870    3.1640 c3        1 MOL     -0.182711
     91 H36         2.6000   -4.1440    3.4710 hn        1 MOL      0.274584
     92 H37         2.8540   -1.4220    2.2590 h1        1 MOL      0.104484
     93 H38         4.7640   -2.4470    4.3260 hc        1 MOL     -0.064156
     94 H39         4.7250   -0.0310    4.9290 hc        1 MOL      0.025537
     95 H40         3.6410    0.1090    3.5120 hc        1 MOL      0.025537
     96 H41         2.6590   -2.9390    5.4320 hc        1 MOL      0.112771
     97 H42         3.5650   -1.6870    6.1860 hc        1 MOL      0.112771
     98 H43         2.1130   -1.2560    5.2800 hc        1 MOL      0.112771
     99 H44         5.5990   -0.6230    2.1450 hc        1 MOL      0.043304
    100 H45         6.2120    0.7010    3.3500 hc        1 MOL      0.043304
    101 H46         6.5290   -0.9700    3.5830 hc        1 MOL      0.043304
    102 N10         4.3220   -2.1190    0.4830 n         1 MOL      0.014702
    103 C32         5.2310   -2.5360   -0.6370 c3        1 MOL     -0.091616
    104 C33         6.1110   -1.4630   -1.3190 c         1 MOL      0.540542
    105 O16         6.6590   -1.6460   -2.3830 o         1 MOL     -0.524899
    106 C34         4.3330   -3.3710   -1.5830 c3        1 MOL     -0.072558
    107 C35         2.9710   -2.7670   -2.0590 c         1 MOL      0.735839
    108 O17         2.9590   -2.0500   -3.0450 o         1 MOL     -0.679788
    109 O18         1.9360   -2.9980   -1.3730 o         1 MOL     -0.679788
    110 H47         3.6110   -1.4280    0.2900 hn        1 MOL      0.197824
    111 H48         6.0020   -3.2360   -0.3060 h1        1 MOL      0.094793
    112 H49         4.0600   -4.3330   -1.1410 hc        1 MOL      0.013714
    113 H50         4.8260   -3.6180   -2.5170 hc        1 MOL      0.013714
    114 N11         6.2280   -0.3210   -0.6140 n         1 MOL     -0.459791
    115 C36         7.0080    0.8420   -0.9690 c3        1 MOL      0.368108
    116 C37         6.4680    2.1710   -0.4230 c         1 MOL      0.359733
    117 O19         6.0940    2.1410    0.7260 o         1 MOL     -0.478153
    118 C38         8.4320    0.6010   -0.6080 c3        1 MOL     -0.260342
    119 C39         9.4470    1.6800   -1.1220 ca        1 MOL      0.111903
    120 C40         9.7880    2.7700   -0.3520 ca        1 MOL     -0.160312
    121 C41         9.9200    1.4890   -2.3930 ca        1 MOL     -0.160312
    122 C42        10.6880    3.7260   -0.9180 ca        1 MOL     -0.102510
    123 C43        10.6970    2.4360   -2.9240 ca        1 MOL     -0.102510
    124 C44        11.0620    3.5300   -2.2340 ca        1 MOL     -0.109722
    125 H51         5.6230   -0.3000    0.1970 hn        1 MOL      0.165217
    126 H52         6.9170    0.8890   -2.0520 h1        1 MOL     -0.018632
    127 H53         8.6850   -0.3620   -1.0550 hc        1 MOL      0.079293
    128 H54         8.5250    0.6290    0.4780 hc        1 MOL      0.079293
    129 H55         9.4980    2.8640    0.6770 ha        1 MOL      0.133068
    130 H56         9.6760    0.5750   -2.9040 ha        1 MOL      0.133068
    131 H57        11.0380    4.5740   -0.3400 ha        1 MOL      0.103040
    132 H58        11.1900    2.3180   -3.8770 ha        1 MOL      0.103040
    133 H59        11.7390    4.1930   -2.7620 ha        1 MOL      0.091634
    134 N12         6.4380    3.3240   -1.1790 n         1 MOL     -0.198506
    135 C45         6.3750    4.7830   -0.7460 c3        1 MOL      0.056696
    136 C46         5.0810    5.1940    0.0900 c         1 MOL      0.390081
    137 O20         5.1300    6.2550    0.7330 o         1 MOL     -0.531090
    138 C47         6.4130    5.5570   -2.0200 c3        1 MOL     -0.062709
    139 C48         7.2930    4.7570   -2.8290 c3        1 MOL     -0.033402
    140 C49         6.8470    3.3380   -2.5990 c3        1 MOL      0.124388
    141 H60         7.2750    4.9980   -0.1810 h1        1 MOL      0.059577
    142 H61         5.4090    5.6100   -2.4440 hc        1 MOL      0.051705
    143 H62         6.7900    6.5470   -1.8020 hc        1 MOL      0.051705
    144 H63         7.1330    4.9810   -3.8860 hc        1 MOL      0.009980
    145 H64         8.3730    4.7470   -2.6860 hc        1 MOL      0.009980
    146 H65         6.0080    3.0900   -3.2450 h1        1 MOL      0.008799
    147 H66         7.6990    2.6960   -2.7910 h1        1 MOL      0.008799
    148 N13         4.0070    4.4050   -0.0270 n         1 MOL     -0.255420
    149 C50         2.6360    4.5910    0.5870 c3        1 MOL     -0.089092
    150 C51         2.7640    4.8880    2.0740 c         1 MOL      0.495788
    151 O21         1.8870    5.6170    2.6080 o         1 MOL     -0.556415
    152 C52         1.8840    3.2950    0.3830 c3        1 MOL     -0.104066
    153 C53         2.5650    2.1210    1.1080 c3        1 MOL      0.170378
    154 C54         1.7610    0.8980    0.7540 c         1 MOL      0.586652
    155 O22         2.3200   -0.0120    0.2020 o         1 MOL     -0.728845
    156 O23         0.4830    0.8510    0.8810 o         1 MOL     -0.728845
    157 H67         4.1340    3.5740   -0.5890 hn        1 MOL      0.180902
    158 H68         2.0630    5.4210    0.1740 h1        1 MOL      0.112189
    159 H69         1.7560    3.0870   -0.6790 hc        1 MOL      0.076556
    160 H70         0.8800    3.4160    0.7770 hc        1 MOL      0.076556
    161 H71         2.5730    2.3200    2.1810 hc        1 MOL     -0.063376
    162 H72         3.6130    1.9470    0.8730 hc        1 MOL     -0.063376
    163 N14         3.8450    4.5410    2.7920 n         1 MOL     -0.100725
    164 C55         3.9570    4.8330    4.2400 c3        1 MOL     -0.132428
    165 H73         5.0080    4.9450    4.5070 h1        1 MOL      0.069461
    166 H74         3.4240    5.7560    4.4680 h1        1 MOL      0.069461
    167 H75         3.5230    4.0120    4.8110 h1        1 MOL      0.069461
    168 H76         4.5290    3.9990    2.2690 hn        1 MOL      0.152359
    169 Ca1        -0.1240   -1.2770   -0.5650 Ca        1 MOL      1.762696
    170 O24         0.8880   -0.1620   -2.9460 oh        1 MOL     -0.914671
    171 H77         0.8590    0.5710   -3.5670 ho        1 MOL      0.426012
    172 H78         1.6540   -0.6690   -3.2150 ho        1 MOL      0.426012
    173 O25        -2.2610   -1.6200    1.4210 oh        1 MOL     -0.914671
    174 H79        -3.2170   -1.5890    1.4340 ho        1 MOL      0.426012
    175 H80        -1.9970   -1.0080    2.1130 ho        1 MOL      0.426012
@<TRIPOS>BOND
     1    1    2 1   
     2    1    4 1   
     3    1    5 1   
     4    1    6 1   
     5    2    3 2   
     6    2    7 1   
     7    7    8 1   
     8    7   15 1   
     9    8    9 1   
    10    8   11 1   
    11    8   16 1   
    12    9   10 2   
    13    9   19 1   
    14   11   12 1   
    15   11   17 1   
    16   11   18 1   
    17   12   13 1   
    18   12   14 1   
    19   19   20 1   
    20   19   24 1   
    21   20   21 1   
    22   20   23 1   
    23   20   25 1   
    24   21   22 2   
    25   21   29 1   
    26   23   26 1   
    27   23   27 1   
    28   23   28 1   
    29   29   30 1   
    30   29   37 1   
    31   30   31 1   
    32   30   33 1   
    33   30   38 1   
    34   31   32 2   
    35   31   41 1   
    36   33   34 1   
    37   33   39 1   
    38   33   40 1   
    39   34   35 1   
    40   34   36 1   
    41   41   42 1   
    42   41   45 1   
    43   42   43 1   
    44   42   46 1   
    45   42   47 1   
    46   43   44 2   
    47   43   48 1   
    48   48   49 1   
    49   48   56 1   
    50   49   50 1   
    51   49   52 1   
    52   49   57 1   
    53   50   51 2   
    54   50   62 1   
    55   52   53 1   
    56   52   58 1   
    57   52   59 1   
    58   53   54 1   
    59   53   55 2   
    60   54   60 1   
    61   54   61 1   
    62   62   63 1   
    63   62   66 1   
    64   63   64 1   
    65   63   67 1   
    66   63   68 1   
    67   64   65 2   
    68   64   69 1   
    69   69   70 1   
    70   69   76 1   
    71   70   71 1   
    72   70   73 1   
    73   70   77 1   
    74   71   72 2   
    75   71   83 1   
    76   73   74 1   
    77   73   75 1   
    78   73   78 1   
    79   74   80 1   
    80   74   81 1   
    81   74   82 1   
    82   75   79 1   
    83   83   84 1   
    84   83   91 1   
    85   84   85 1   
    86   84   87 1   
    87   84   92 1   
    88   85   86 2   
    89   85  102 1   
    90   87   88 1   
    91   87   89 1   
    92   87   93 1   
    93   88   90 1   
    94   88   94 1   
    95   88   95 1   
    96   89   96 1   
    97   89   97 1   
    98   89   98 1   
    99   90   99 1   
   100   90  100 1   
   101   90  101 1   
   102  102  103 1   
   103  102  110 1   
   104  103  104 1   
   105  103  106 1   
   106  103  111 1   
   107  104  105 2   
   108  104  114 1   
   109  106  107 1   
   110  106  112 1   
   111  106  113 1   
   112  107  108 1   
   113  107  109 1   
   114  114  115 1   
   115  114  125 1   
   116  115  116 1   
   117  115  118 1   
   118  115  126 1   
   119  116  117 2   
   120  116  134 1   
   121  118  119 1   
   122  118  127 1   
   123  118  128 1   
   124  119  120 ar  
   125  119  121 ar  
   126  120  122 ar  
   127  120  129 1   
   128  121  123 ar  
   129  121  130 1   
   130  122  124 ar  
   131  122  131 1   
   132  123  124 ar  
   133  123  132 1   
   134  124  133 1   
   135  134  135 1   
   136  134  140 1   
   137  135  136 1   
   138  135  138 1   
   139  135  141 1   
   140  136  137 2   
   141  136  148 1   
   142  138  139 1   
   143  138  142 1   
   144  138  143 1   
   145  139  140 1   
   146  139  144 1   
   147  139  145 1   
   148  140  146 1   
   149  140  147 1   
   150  148  149 1   
   151  148  157 1   
   152  149  150 1   
   153  149  152 1   
   154  149  158 1   
   155  150  151 2   
   156  150  163 1   
   157  152  153 1   
   158  152  159 1   
   159  152  160 1   
   160  153  154 1   
   161  153  161 1   
   162  153  162 1   
   163  154  155 1   
   164  154  156 1   
   165  163  164 1   
   166  163  168 1   
   167  164  165 1   
   168  164  166 1   
   169  164  167 1   
   170  170  171 1   
   171  170  172 1   
   172  173  174 1   
   173  173  175 1   
@<TRIPOS>SUBSTRUCTURE
     1 MOL         1 TEMP              0 ****  ****    0 ROOT
