@<TRIPOS>MOLECULE
MOL
  189   185     1     0     0
SMALL
resp


@<TRIPOS>ATOM
      1 C1         -9.1920   -0.6090   -2.5490 c3        1 MOL     -0.421461
      2 C2         -8.1020   -0.3590   -1.4730 c         1 MOL      0.748858
      3 O1         -6.9590   -0.6460   -1.6840 o         1 MOL     -0.676024
      4 H1         -9.5000   -1.6540   -2.5180 hc        1 MOL      0.104134
      5 H2        -10.0530    0.0290   -2.3500 hc        1 MOL      0.104134
      6 H3         -8.7900   -0.3790   -3.5360 hc        1 MOL      0.104134
      7 N1         -8.4840    0.0580   -0.2910 n         1 MOL     -0.535657
      8 C3         -7.5260    0.3490    0.7360 c3        1 MOL      0.056171
      9 C4         -7.0720   -0.9310    1.4950 c         1 MOL      0.426808
     10 O2         -6.8660   -0.8270    2.7090 o         1 MOL     -0.440002
     11 C5         -7.9550    1.4710    1.6600 c3        1 MOL     -0.317432
     12 C6         -9.3370    1.1940    2.2530 c         1 MOL      0.754029
     13 O3        -10.1250    0.2430    1.9810 o         1 MOL     -0.659262
     14 O4         -9.7540    2.0500    3.0800 o         1 MOL     -0.659262
     15 H4         -9.4730    0.1680   -0.0960 hn        1 MOL      0.273529
     16 H5         -6.6890    0.7550    0.1540 h1        1 MOL      0.146496
     17 H6         -8.1020    2.3240    0.9870 hc        1 MOL      0.106366
     18 H7         -7.3100    1.7130    2.5050 hc        1 MOL      0.106366
     19 N2         -6.7340   -2.0670    0.8590 n         1 MOL     -0.262269
     20 C7         -6.1520   -3.2200    1.5960 c3        1 MOL      0.010901
     21 C8         -4.7640   -2.8670    2.2640 c         1 MOL      0.351132
     22 O5         -4.5410   -3.2010    3.3880 o         1 MOL     -0.511015
     23 C9         -5.9670   -4.3280    0.5530 c3        1 MOL      0.055737
     24 C10        -7.2070   -4.6640   -0.2960 c3        1 MOL     -0.174635
     25 C11        -8.4720   -4.9230    0.5080 c3        1 MOL     -0.065163
     26 C12        -9.7300   -5.0880   -0.4370 c3        1 MOL     -0.002218
     27 N3         -9.5340   -6.2300   -1.3820 n4        1 MOL     -0.262682
     28 H8         -6.7790   -2.0660   -0.1560 hn        1 MOL      0.141486
     29 H9         -6.8260   -3.6520    2.3230 h1        1 MOL      0.077776
     30 H10        -5.5090   -5.2470    0.9490 hc        1 MOL      0.009117
     31 H11        -5.2030   -4.0170   -0.1550 hc        1 MOL      0.009117
     32 H12        -6.9850   -5.4550   -1.0180 hc        1 MOL      0.052800
     33 H13        -7.1940   -3.8100   -0.9730 hc        1 MOL      0.052800
     34 H14        -8.7010   -4.0040    1.0390 hc        1 MOL      0.081335
     35 H15        -8.3550   -5.7020    1.2710 hc        1 MOL      0.081335
     36 H16        -9.7970   -4.1420   -0.9720 hx        1 MOL      0.089343
     37 H17       -10.6630   -5.2350    0.1100 hx        1 MOL      0.089343
     38 H18        -8.8700   -6.0470   -2.1230 hn        1 MOL      0.257714
     39 H19        -9.3610   -7.0730   -0.8590 hn        1 MOL      0.257714
     40 H20       -10.3850   -6.3510   -1.9240 hn        1 MOL      0.257714
     41 N4         -3.8730   -2.1710    1.6330 n         1 MOL     -0.035360
     42 C13        -3.6930   -1.7240    0.2300 c3        1 MOL     -0.293750
     43 C14        -3.6070   -0.1970    0.2040 c         1 MOL      0.435900
     44 O6         -3.1930    0.5540    1.1190 o         1 MOL     -0.514931
     45 C15        -2.4000   -2.3050   -0.4540 c3        1 MOL     -0.325712
     46 C16        -1.1440   -2.3720    0.4200 c         1 MOL      0.776805
     47 O7         -1.0450   -1.5240    1.3590 o         1 MOL     -0.631898
     48 O8         -0.3870   -3.3050    0.2180 o         1 MOL     -0.631898
     49 H21        -3.0650   -2.0270    2.2140 hn        1 MOL      0.210501
     50 H22        -4.4750   -2.0710   -0.4440 h1        1 MOL      0.220040
     51 H23        -2.1360   -1.6800   -1.3100 hc        1 MOL      0.083329
     52 H24        -2.6700   -3.2380   -0.9470 hc        1 MOL      0.083329
     53 N5         -4.0230    0.3520   -0.8660 n         1 MOL     -0.296562
     54 C17        -4.1900    1.8310   -0.9850 c3        1 MOL     -0.069763
     55 C18        -2.9340    2.7310   -0.8730 c         1 MOL      0.560445
     56 O9         -1.7770    2.2440   -1.0030 o         1 MOL     -0.606779
     57 H25        -4.2220   -0.1870   -1.6930 hn        1 MOL      0.299153
     58 H26        -4.8550    2.2170   -0.2140 h1        1 MOL      0.065980
     59 H27        -4.5880    2.0870   -1.9570 h1        1 MOL      0.065980
     60 N6         -3.1310    4.0330   -0.6150 n         1 MOL     -0.512988
     61 C19        -1.9840    4.9810   -0.3570 c3        1 MOL      0.388049
     62 C20        -1.8800    6.1510   -1.3240 c         1 MOL      0.427592
     63 O10        -2.7750    6.4690   -2.1290 o         1 MOL     -0.535370
     64 C21        -2.0100    5.4170    1.1430 c3        1 MOL     -0.410459
     65 C22        -1.8770    4.2630    2.2030 c         1 MOL      0.738867
     66 O11        -1.6350    3.0670    1.9260 o         1 MOL     -0.659715
     67 O12        -2.0400    4.6050    3.3720 o         1 MOL     -0.659715
     68 H28        -4.0590    4.4140   -0.7060 hn        1 MOL      0.308080
     69 H29        -1.0780    4.4050   -0.5180 h1        1 MOL      0.028426
     70 H30        -2.9360    5.8830    1.4790 hc        1 MOL      0.095842
     71 H31        -1.2720    6.2000    1.3380 hc        1 MOL      0.095842
     72 N7         -0.7630    6.9010   -1.2250 n         1 MOL     -0.477691
     73 C23         0.5380    6.5230   -0.5400 c3        1 MOL     -0.097320
     74 C24         1.3640    5.6910   -1.5150 c         1 MOL      0.633155
     75 O13         1.1590    5.6960   -2.7020 o         1 MOL     -0.520049
     76 H32        -0.6600    7.6860   -1.8560 hn        1 MOL      0.332504
     77 H33         0.5080    6.0520    0.4400 h1        1 MOL      0.092021
     78 H34         0.9330    7.5040   -0.2610 h1        1 MOL      0.092021
     79 N8          2.3740    4.9900   -1.0890 n         1 MOL     -0.634026
     80 C25         2.8020    3.7110   -1.6980 c3        1 MOL      0.049736
     81 C26         1.7360    2.6800   -1.7720 c         1 MOL      1.062853
     82 O14         0.9260    2.5550   -0.9370 o         1 MOL     -0.780412
     83 C27         4.1160    3.2290   -1.0390 c3        1 MOL      0.249915
     84 C28         4.7490    2.1370   -1.8290 c3        1 MOL     -0.204534
     85 O15         3.9390    2.6830    0.2540 oh        1 MOL     -0.698907
     86 H35         2.6310    5.0590   -0.1110 hn        1 MOL      0.309015
     87 H36         3.0680    3.9760   -2.7220 h1        1 MOL      0.050804
     88 H37         4.8120    4.0620   -1.0040 h1        1 MOL      0.044192
     89 H38         4.8230    2.4630    0.5490 ho        1 MOL      0.459933
     90 H39         4.3210    1.1380   -1.7070 hc        1 MOL      0.044378
     91 H40         4.7480    2.4450   -2.8710 hc        1 MOL      0.044378
     92 H41         5.8080    1.9920   -1.5980 hc        1 MOL      0.044378
     93 N9          1.7520    2.0190   -2.9070 n         1 MOL     -0.625534
     94 C29         1.1250    0.7780   -3.2900 c3        1 MOL     -0.070153
     95 C30         1.2660   -0.3670   -2.2820 c         1 MOL      0.422383
     96 O16         0.9710   -0.1740   -1.1140 o         1 MOL     -0.524075
     97 C31        -0.3400    0.8370   -3.8630 c3        1 MOL      0.133168
     98 C32        -0.3000    1.7860   -5.0200 c3        1 MOL      0.289316
     99 C33        -0.9050   -0.4810   -4.4240 c3        1 MOL     -0.524123
    100 C34        -1.7630    2.0330   -5.5710 c3        1 MOL     -0.238576
    101 H42         2.3070    2.3920   -3.6630 hn        1 MOL      0.277860
    102 H43         1.7060    0.4090   -4.1360 h1        1 MOL      0.054365
    103 H44        -0.9780    1.2750   -3.1040 hc        1 MOL      0.053835
    104 H45         0.2860    1.3820   -5.8460 hc        1 MOL     -0.074054
    105 H46         0.1430    2.7380   -4.7280 hc        1 MOL     -0.074054
    106 H47        -0.9680   -1.3120   -3.7210 hc        1 MOL      0.129643
    107 H48        -1.9640   -0.3310   -4.6780 hc        1 MOL      0.129643
    108 H49        -0.3440   -0.7630   -5.3200 hc        1 MOL      0.129643
    109 H50        -2.1570    1.1750   -6.1090 hc        1 MOL      0.055218
    110 H51        -2.3700    2.2840   -4.7080 hc        1 MOL      0.055218
    111 H52        -1.7500    2.9020   -6.2310 hc        1 MOL      0.055218
    112 N10         1.7980   -1.4980   -2.9010 n         1 MOL     -0.142460
    113 C35         2.2230   -2.6960   -2.1630 c3        1 MOL     -0.147186
    114 C36         3.7390   -2.8970   -2.1100 c         1 MOL      0.485004
    115 O17         4.1770   -3.8930   -1.5950 o         1 MOL     -0.511222
    116 C37         1.4690   -3.9540   -2.5830 c3        1 MOL      0.504111
    117 C38         1.6870   -4.1370   -4.0950 c3        1 MOL     -0.361753
    118 O18         0.0640   -3.9070   -2.3250 oh        1 MOL     -0.670653
    119 H53         2.1580   -1.4030   -3.8360 hn        1 MOL      0.173757
    120 H54         1.9040   -2.6070   -1.1300 h1        1 MOL      0.118514
    121 H55         1.8700   -4.8210   -2.0530 h1        1 MOL     -0.025738
    122 H56        -0.1880   -3.9420   -1.4040 ho        1 MOL      0.376111
    123 H57         1.5340   -5.1420   -4.4930 hc        1 MOL      0.082628
    124 H58         0.9050   -3.5560   -4.5890 hc        1 MOL      0.082628
    125 H59         2.6860   -3.8000   -4.3490 hc        1 MOL      0.082628
    126 N11         4.5900   -1.9210   -2.5740 n         1 MOL     -0.314940
    127 C39         6.0480   -2.0790   -2.7120 c3        1 MOL     -0.076957
    128 C40         6.6300   -1.6740   -1.3960 c         1 MOL      0.580309
    129 O19         7.0940   -0.5300   -1.2200 o         1 MOL     -0.528647
    130 C41         6.7540   -1.4550   -3.9680 c3        1 MOL      0.467615
    131 C42         8.1960   -1.8960   -4.0780 c3        1 MOL     -0.466549
    132 O20         5.9750   -1.8960   -5.0790 oh        1 MOL     -0.587023
    133 H60         4.2540   -1.0690   -3.0200 hn        1 MOL      0.199493
    134 H61         6.1320   -3.1610   -2.8300 h1        1 MOL      0.066053
    135 H62         6.7260   -0.3820   -3.8490 h1        1 MOL     -0.041832
    136 H63         5.2000   -1.3270   -5.0590 ho        1 MOL      0.349340
    137 H64         8.7010   -1.6690   -3.1440 hc        1 MOL      0.130796
    138 H65         8.2840   -2.9710   -4.1900 hc        1 MOL      0.130796
    139 H66         8.5620   -1.4420   -5.0030 hc        1 MOL      0.130796
    140 N12         6.6620   -2.6020   -0.4350 n         1 MOL     -0.589849
    141 C43         6.9720   -2.3800    1.0410 c3        1 MOL      0.063052
    142 C44         6.1580   -1.2610    1.6300 c         1 MOL      0.749337
    143 O21         6.7250   -0.1540    1.8400 o         1 MOL     -0.579195
    144 C45         8.4980   -2.1970    1.2070 c3        1 MOL     -0.127471
    145 C46         9.0180   -2.2630    2.6650 c3        1 MOL     -0.079407
    146 C47        10.4950   -2.3150    2.6960 c3        1 MOL      0.138697
    147 C48        11.2450   -1.0970    2.1510 c3        1 MOL     -0.088427
    148 N13        12.7340   -1.3010    2.1940 n4        1 MOL     -0.096090
    149 H67         6.2860   -3.5290   -0.5690 hn        1 MOL      0.323312
    150 H68         6.7640   -3.2940    1.6090 h1        1 MOL      0.074604
    151 H69         8.9040   -1.3360    0.6850 hc        1 MOL      0.053611
    152 H70         8.9370   -3.0560    0.7040 hc        1 MOL      0.053611
    153 H71         8.6160   -3.1330    3.1770 hc        1 MOL      0.063193
    154 H72         8.6530   -1.3810    3.1700 hc        1 MOL      0.063193
    155 H73        10.7910   -3.1640    2.0700 hc        1 MOL     -0.022786
    156 H74        10.7890   -2.4570    3.7350 hc        1 MOL     -0.022786
    157 H75        10.9980   -0.2020    2.7230 hx        1 MOL      0.118290
    158 H76        11.0300   -0.9550    1.0880 hx        1 MOL      0.118290
    159 H77        13.1730   -1.1300    3.0890 hn        1 MOL      0.196672
    160 H78        13.0830   -2.2440    2.1580 hn        1 MOL      0.196672
    161 H79        13.2840   -0.7650    1.5440 hn        1 MOL      0.196672
    162 N14         4.9840   -1.5690    2.1700 n         1 MOL     -0.917494
    163 C49         3.9320   -0.6060    2.5420 c3        1 MOL      0.647399
    164 C50         2.5450   -1.0080    2.0460 c         1 MOL      0.209271
    165 O22         1.9740   -0.1160    1.4460 o         1 MOL     -0.523458
    166 C51         3.8120   -0.3770    4.0270 c3        1 MOL      0.088859
    167 C52         3.5420    1.1040    4.3220 c3        1 MOL     -0.207516
    168 C53         3.6100    1.3560    5.8930 c         1 MOL      0.692559
    169 O23         2.9180    0.6140    6.5470 o         1 MOL     -0.636976
    170 O24         4.4340    2.1600    6.3720 o         1 MOL     -0.636976
    171 H80         4.7480   -2.5350    1.9920 hn        1 MOL      0.348735
    172 H81         4.1470    0.3460    2.0590 h1        1 MOL     -0.048911
    173 H82         4.7990   -0.5640    4.4620 hc        1 MOL     -0.019220
    174 H83         3.1190   -1.1010    4.4580 hc        1 MOL     -0.019220
    175 H84         2.6600    1.4620    3.7840 hc        1 MOL      0.010112
    176 H85         4.3450    1.7020    3.8850 hc        1 MOL      0.010112
    177 N15         1.9610   -2.1590    2.1880 n         1 MOL     -0.123311
    178 C54         2.2870   -3.3950    2.8400 c3        1 MOL     -0.018880
    179 H86         2.5860   -4.1310    2.0940 h1        1 MOL      0.041136
    180 H87         3.1070   -3.2330    3.5400 h1        1 MOL      0.041136
    181 H88         1.4140   -3.7620    3.3810 h1        1 MOL      0.041136
    182 H89         1.1090   -2.2010    1.6580 hn        1 MOL      0.169183
    183 Ca1        -0.2930    1.1500    0.9330 Ca        1 MOL      1.750631
    184 O25        -0.8090    0.5720    3.4810 oh        1 MOL     -0.891398
    185 H90        -1.7290    0.7140    3.6890 ho        1 MOL      0.431455
    186 H91        -0.4560    0.0900    4.2360 ho        1 MOL      0.431455
    187 O26         1.4030    2.9350    2.0070 oh        1 MOL     -0.891398
    188 H92         1.3920    3.8900    2.1140 ho        1 MOL      0.431455
    189 H93         2.2780    2.7440    1.6690 ho        1 MOL      0.431455
@<TRIPOS>BOND
     1    1    2 1   
     2    1    4 1   
     3    1    5 1   
     4    1    6 1   
     5    2    3 2   
     6    2    7 1   
     7    7    8 1   
     8    7   15 1   
     9    8    9 1   
    10    8   11 1   
    11    8   16 1   
    12    9   10 2   
    13    9   19 1   
    14   11   12 1   
    15   11   17 1   
    16   11   18 1   
    17   12   13 1   
    18   12   14 1   
    19   19   20 1   
    20   19   28 1   
    21   20   21 1   
    22   20   23 1   
    23   20   29 1   
    24   21   22 2   
    25   21   41 1   
    26   23   24 1   
    27   23   30 1   
    28   23   31 1   
    29   24   25 1   
    30   24   32 1   
    31   24   33 1   
    32   25   26 1   
    33   25   34 1   
    34   25   35 1   
    35   26   27 1   
    36   26   36 1   
    37   26   37 1   
    38   27   38 1   
    39   27   39 1   
    40   27   40 1   
    41   41   42 1   
    42   41   49 1   
    43   42   43 1   
    44   42   45 1   
    45   42   50 1   
    46   43   44 2   
    47   43   53 1   
    48   45   46 1   
    49   45   51 1   
    50   45   52 1   
    51   46   47 1   
    52   46   48 1   
    53   53   54 1   
    54   53   57 1   
    55   54   55 1   
    56   54   58 1   
    57   54   59 1   
    58   55   56 2   
    59   55   60 1   
    60   60   61 1   
    61   60   68 1   
    62   61   62 1   
    63   61   64 1   
    64   61   69 1   
    65   62   63 2   
    66   62   72 1   
    67   64   65 1   
    68   64   70 1   
    69   64   71 1   
    70   65   66 1   
    71   65   67 1   
    72   72   73 1   
    73   72   76 1   
    74   73   74 1   
    75   73   77 1   
    76   73   78 1   
    77   74   75 2   
    78   74   79 1   
    79   79   80 1   
    80   79   86 1   
    81   80   81 1   
    82   80   83 1   
    83   80   87 1   
    84   81   82 2   
    85   81   93 1   
    86   83   84 1   
    87   83   85 1   
    88   83   88 1   
    89   84   90 1   
    90   84   91 1   
    91   84   92 1   
    92   85   89 1   
    93   93   94 1   
    94   93  101 1   
    95   94   95 1   
    96   94   97 1   
    97   94  102 1   
    98   95   96 2   
    99   95  112 1   
   100   97   98 1   
   101   97   99 1   
   102   97  103 1   
   103   98  100 1   
   104   98  104 1   
   105   98  105 1   
   106   99  106 1   
   107   99  107 1   
   108   99  108 1   
   109  100  109 1   
   110  100  110 1   
   111  100  111 1   
   112  112  113 1   
   113  112  119 1   
   114  113  114 1   
   115  113  116 1   
   116  113  120 1   
   117  114  115 2   
   118  114  126 1   
   119  116  117 1   
   120  116  118 1   
   121  116  121 1   
   122  117  123 1   
   123  117  124 1   
   124  117  125 1   
   125  118  122 1   
   126  126  127 1   
   127  126  133 1   
   128  127  128 1   
   129  127  130 1   
   130  127  134 1   
   131  128  129 2   
   132  128  140 1   
   133  130  131 1   
   134  130  132 1   
   135  130  135 1   
   136  131  137 1   
   137  131  138 1   
   138  131  139 1   
   139  132  136 1   
   140  140  141 1   
   141  140  149 1   
   142  141  142 1   
   143  141  144 1   
   144  141  150 1   
   145  142  143 2   
   146  142  162 1   
   147  144  145 1   
   148  144  151 1   
   149  144  152 1   
   150  145  146 1   
   151  145  153 1   
   152  145  154 1   
   153  146  147 1   
   154  146  155 1   
   155  146  156 1   
   156  147  148 1   
   157  147  157 1   
   158  147  158 1   
   159  148  159 1   
   160  148  160 1   
   161  148  161 1   
   162  162  163 1   
   163  162  171 1   
   164  163  164 1   
   165  163  166 1   
   166  163  172 1   
   167  164  165 2   
   168  164  177 1   
   169  166  167 1   
   170  166  173 1   
   171  166  174 1   
   172  167  168 1   
   173  167  175 1   
   174  167  176 1   
   175  168  169 1   
   176  168  170 1   
   177  177  178 1   
   178  177  182 1   
   179  178  179 1   
   180  178  180 1   
   181  178  181 1   
   182  184  185 1   
   183  184  186 1   
   184  187  188 1   
   185  187  189 1   
@<TRIPOS>SUBSTRUCTURE
     1 MOL         1 TEMP              0 ****  ****    0 ROOT
