@<TRIPOS>MOLECULE
MOL
  189   185     1     0     0
SMALL
resp


@<TRIPOS>ATOM
      1 C1          4.5120    3.2130   -4.3340 c3        1 MOL     -0.428237
      2 C2          5.0900    2.6340   -3.0240 c         1 MOL      0.744945
      3 O1          4.3970    2.4900   -1.9800 o         1 MOL     -0.633281
      4 H1          4.4240    4.2960   -4.2450 hc        1 MOL      0.110264
      5 H2          5.1760    2.9700   -5.1640 hc        1 MOL      0.110264
      6 H3          3.5270    2.7830   -4.5180 hc        1 MOL      0.110264
      7 N1          6.2860    2.0500   -3.1120 n         1 MOL     -0.700438
      8 C3          6.8730    0.9350   -2.3440 c3        1 MOL      0.322594
      9 C4          5.8980   -0.1250   -1.8170 c         1 MOL      0.108839
     10 O2          5.4290   -0.0470   -0.7090 o         1 MOL     -0.345369
     11 C5          7.8740    1.5070   -1.2510 c3        1 MOL     -0.212388
     12 C6          7.5540    2.8330   -0.5950 c         1 MOL      0.863860
     13 O3          6.7240    2.9100    0.2900 o         1 MOL     -0.780819
     14 O4          8.2140    3.7730   -1.0680 o         1 MOL     -0.780819
     15 H4          6.8190    2.4040   -3.8900 hn        1 MOL      0.332129
     16 H5          7.5790    0.4610   -3.0180 h1        1 MOL      0.032437
     17 H6          8.8660    1.4710   -1.6980 hc        1 MOL      0.034004
     18 H7          7.9260    0.7860   -0.4330 hc        1 MOL      0.034004
     19 N2          5.4580   -0.9910   -2.7260 n         1 MOL     -0.221831
     20 C7          4.5670   -2.1420   -2.7260 c3        1 MOL      0.011297
     21 C8          5.1370   -3.2950   -1.8810 c         1 MOL      0.311686
     22 O5          5.3880   -4.4240   -2.4140 o         1 MOL     -0.567621
     23 C9          3.1390   -1.8620   -2.4120 c3        1 MOL      0.386357
     24 C10         2.2930   -3.1730   -2.3760 c3        1 MOL     -0.126190
     25 C11         2.4230   -0.8140   -3.3830 c3        1 MOL     -0.537772
     26 C12         2.1930   -3.9250   -3.6770 c3        1 MOL      0.067832
     27 H8          5.8270   -0.8200   -3.6600 hn        1 MOL      0.209482
     28 H9          4.5710   -2.4630   -3.7720 h1        1 MOL      0.037666
     29 H10         3.2010   -1.3400   -1.4610 hc        1 MOL     -0.184675
     30 H11         1.2760   -2.8280   -2.1680 hc        1 MOL      0.043915
     31 H12         2.6210   -3.8320   -1.5820 hc        1 MOL      0.043915
     32 H13         2.6370   -0.9860   -4.4340 hc        1 MOL      0.132819
     33 H14         1.3340   -0.7610   -3.2350 hc        1 MOL      0.132819
     34 H15         2.8680    0.1430   -3.1110 hc        1 MOL      0.132819
     35 H16         1.6730   -3.2720   -4.3830 hc        1 MOL     -0.030484
     36 H17         3.1460   -4.0890   -4.1790 hc        1 MOL     -0.030484
     37 H18         1.6990   -4.8890   -3.5740 hc        1 MOL     -0.030484
     38 N3          5.3770   -3.0380   -0.6220 n         1 MOL     -0.022867
     39 C13         6.1030   -3.9470    0.3000 c3        1 MOL      0.013602
     40 C14         5.3320   -5.1160    0.9770 c         1 MOL      0.572814
     41 O6          5.7610   -6.2300    0.9350 o         1 MOL     -0.568185
     42 C15         6.9650   -3.0780    1.2430 c3        1 MOL     -0.178830
     43 C16         7.9480   -2.0250    0.6960 c         1 MOL      0.696105
     44 O7          8.4230   -2.0680   -0.4370 o         1 MOL     -0.703467
     45 O8          8.2270   -1.1920    1.5630 o         1 MOL     -0.703467
     46 H19         5.1200   -2.1350   -0.2480 hn        1 MOL      0.186759
     47 H20         6.8630   -4.3840   -0.3430 h1        1 MOL      0.049779
     48 H21         7.5320   -3.7730    1.8660 hc        1 MOL      0.053877
     49 H22         6.4200   -2.5480    2.0150 hc        1 MOL      0.053877
     50 N4          4.1480   -4.9060    1.6300 n         1 MOL     -0.484765
     51 C17         3.4110   -3.6700    1.9090 c3        1 MOL      0.059906
     52 C18         3.9330   -3.0540    3.2310 c         1 MOL      0.450696
     53 O9          4.8860   -3.6280    3.8460 o         1 MOL     -0.545282
     54 H23         3.6050   -5.7170    1.8980 hn        1 MOL      0.277929
     55 H24         2.3480   -3.8490    2.0950 h1        1 MOL      0.045061
     56 H25         3.5890   -2.9270    1.1370 h1        1 MOL      0.045061
     57 N5          3.4070   -1.9050    3.7300 n         1 MOL     -0.411492
     58 C19         2.2600   -1.1780    3.1790 c3        1 MOL      0.135430
     59 C20         2.4080   -0.8280    1.6820 c         1 MOL      0.009003
     60 O10         3.5370   -0.5410    1.2330 o         1 MOL     -0.446847
     61 C21         1.8400    0.0110    3.9610 c3        1 MOL     -0.236227
     62 C22         2.8210    1.1730    3.7890 c         1 MOL      0.868254
     63 O11         2.7360    1.8590    2.8030 o         1 MOL     -0.755028
     64 O12         3.6220    1.4850    4.7460 o         1 MOL     -0.755028
     65 H26         3.7030   -1.5900    4.6400 hn        1 MOL      0.296326
     66 H27         1.4660   -1.9130    3.2610 h1        1 MOL      0.028898
     67 H28         1.8700   -0.2700    5.0090 hc        1 MOL      0.059098
     68 H29         0.8820    0.4210    3.6450 hc        1 MOL      0.059098
     69 N6          1.3730   -0.8170    0.8060 n         1 MOL      0.015723
     70 C23        -0.0680   -1.0780    1.1200 c3        1 MOL     -0.010725
     71 C24        -0.5930   -2.4540    0.7180 c         1 MOL      0.619186
     72 O13         0.1110   -3.3220    0.2570 o         1 MOL     -0.558231
     73 H30         1.6050   -0.5140   -0.1270 hn        1 MOL      0.199023
     74 H31        -0.7310   -0.4210    0.5650 h1        1 MOL      0.035842
     75 H32        -0.2870   -0.9750    2.1840 h1        1 MOL      0.035842
     76 N7         -1.9120   -2.6990    0.9400 n         1 MOL     -0.443309
     77 C25        -2.5500   -3.9870    0.6190 c3        1 MOL     -0.121088
     78 C26        -3.1870   -4.1000   -0.8410 c         1 MOL      0.400101
     79 O14        -3.2710   -5.1870   -1.4080 o         1 MOL     -0.499310
     80 C27        -3.4220   -4.5420    1.7880 c3        1 MOL      0.201408
     81 C28        -4.5690   -3.6700    2.2340 c3        1 MOL     -0.353475
     82 C29        -5.6670   -3.5890    1.1190 c         1 MOL      0.465421
     83 N8         -6.3380   -4.6440    0.7700 n         1 MOL     -0.592823
     84 O15        -5.9270   -2.5740    0.5110 o         1 MOL     -0.516908
     85 H33        -2.3740   -1.9280    1.4060 hn        1 MOL      0.272187
     86 H34        -1.7450   -4.7160    0.7150 h1        1 MOL      0.152015
     87 H35        -2.7420   -4.7250    2.6210 hc        1 MOL     -0.013984
     88 H36        -3.7860   -5.5530    1.5990 hc        1 MOL     -0.013984
     89 H37        -4.1160   -2.7320    2.5550 hc        1 MOL      0.129050
     90 H38        -4.9860   -4.1070    3.1370 hc        1 MOL      0.129050
     91 H39        -6.1420   -5.5260    1.2150 hn        1 MOL      0.324380
     92 H40        -7.2050   -4.4400    0.2880 hn        1 MOL      0.324380
     93 N9         -3.6680   -2.9620   -1.3740 n         1 MOL     -0.233276
     94 C30        -4.0170   -2.7460   -2.8230 c3        1 MOL     -0.064106
     95 C31        -5.3570   -2.0600   -3.0900 c         1 MOL      0.358192
     96 O16        -5.6870   -1.8190   -4.2770 o         1 MOL     -0.548760
     97 C32        -2.8770   -2.0600   -3.6480 c3        1 MOL      0.062063
     98 C33        -1.5220   -2.8350   -3.5150 c3        1 MOL     -0.109525
     99 C34        -2.6250   -0.6000   -3.2530 c3        1 MOL     -0.109525
    100 H41        -3.7360   -2.1200   -0.8230 hn        1 MOL      0.233545
    101 H42        -4.1490   -3.7330   -3.2620 h1        1 MOL      0.117117
    102 H43        -3.1720   -2.0070   -4.6940 hc        1 MOL      0.032921
    103 H44        -0.7220   -2.4190   -4.1200 hc        1 MOL      0.032275
    104 H45        -1.2080   -2.8150   -2.4730 hc        1 MOL      0.032275
    105 H46        -1.5670   -3.8900   -3.7660 hc        1 MOL      0.032275
    106 H47        -2.2120   -0.6020   -2.2380 hc        1 MOL      0.032275
    107 H48        -1.9120   -0.1760   -3.9560 hc        1 MOL      0.032275
    108 H49        -3.4860    0.0610   -3.2860 hc        1 MOL      0.032275
    109 N10        -6.0240   -1.6290   -2.0590 n         1 MOL     -0.165698
    110 C35        -7.3400   -0.9320   -2.0670 c3        1 MOL     -0.086761
    111 C36        -7.4320    0.4400   -1.3950 c         1 MOL      0.646211
    112 O17        -8.4880    1.0680   -1.5160 o         1 MOL     -0.573663
    113 C37        -8.4700   -1.8230   -1.3680 c3        1 MOL     -0.240999
    114 C38        -8.5710   -3.2590   -1.8370 c         1 MOL      0.658773
    115 N11        -8.6570   -3.4940   -3.1090 n         1 MOL     -0.702455
    116 O18        -8.8410   -4.1510   -1.0160 o         1 MOL     -0.591146
    117 H50        -5.5820   -1.7110   -1.1610 hn        1 MOL      0.213660
    118 H51        -7.7380   -0.6350   -3.0320 h1        1 MOL      0.099361
    119 H52        -9.4330   -1.4300   -1.6590 hc        1 MOL      0.096184
    120 H53        -8.3610   -1.8180   -0.2790 hc        1 MOL      0.096184
    121 H54        -8.7230   -2.7190   -3.7550 hn        1 MOL      0.345992
    122 H55        -8.8940   -4.4250   -3.4340 hn        1 MOL      0.345992
    123 N12        -6.3610    0.9810   -0.7840 n         1 MOL     -0.598013
    124 C39        -6.3360    2.2870   -0.0730 c3        1 MOL      0.535244
    125 C40        -4.9480    2.8970    0.1780 c         1 MOL      0.207401
    126 O19        -3.9370    2.2370   -0.0300 o         1 MOL     -0.425588
    127 C41        -7.1080    2.2470    1.2810 c3        1 MOL     -0.343422
    128 C42        -6.4420    1.4970    2.4610 ca        1 MOL      0.450504
    129 C43        -5.8890    2.2920    3.4740 ca        1 MOL     -0.503161
    130 C44        -6.4360    0.1280    2.6110 ca        1 MOL     -0.503161
    131 C45        -5.3060    1.7250    4.5930 ca        1 MOL     -0.052214
    132 C46        -5.7970   -0.4540    3.7240 ca        1 MOL     -0.052214
    133 C47        -5.3140    0.3220    4.7780 ca        1 MOL      0.154656
    134 O20        -4.7320   -0.2620    5.8720 oh        1 MOL     -0.504770
    135 H56        -5.5990    0.3230   -0.7470 hn        1 MOL      0.245436
    136 H57        -6.9450    2.9480   -0.6940 h1        1 MOL     -0.030300
    137 H58        -8.0880    1.7880    1.1080 hc        1 MOL      0.059626
    138 H59        -7.2450    3.2710    1.6370 hc        1 MOL      0.059626
    139 H60        -5.9150    3.3720    3.3820 ha        1 MOL      0.227979
    140 H61        -6.7970   -0.5180    1.8240 ha        1 MOL      0.227979
    141 H62        -4.8300    2.3520    5.3360 ha        1 MOL      0.113045
    142 H63        -5.7540   -1.5360    3.7680 ha        1 MOL      0.113045
    143 H64        -4.4500    0.5090    6.3680 ho        1 MOL      0.417933
    144 N13        -4.8440    4.1930    0.5870 n         1 MOL     -0.572428
    145 C48        -3.6000    4.8950    0.9650 c3        1 MOL      0.135357
    146 C49        -2.4470    5.1590   -0.0050 c         1 MOL      0.396251
    147 O21        -1.7400    6.1810    0.1080 o         1 MOL     -0.491978
    148 C50        -3.1060    4.5270    2.3530 c3        1 MOL      0.172733
    149 C51        -2.4360    3.1640    2.5570 c3        1 MOL     -0.204970
    150 C52        -2.0460    2.8890    4.0210 c         1 MOL      0.762109
    151 O22        -1.8020    3.8740    4.7840 o         1 MOL     -0.728602
    152 O23        -1.9940    1.7430    4.4990 o         1 MOL     -0.728602
    153 H65        -5.7720    4.5480    0.7590 hn        1 MOL      0.332056
    154 H66        -3.9530    5.9070    1.1830 h1        1 MOL      0.004022
    155 H67        -3.9460    4.6140    3.0370 hc        1 MOL     -0.040375
    156 H68        -2.3400    5.2290    2.6860 hc        1 MOL     -0.040375
    157 H69        -1.5640    3.1550    1.9030 hc        1 MOL      0.066310
    158 H70        -3.1150    2.3850    2.2370 hc        1 MOL      0.066310
    159 N14        -2.2800    4.2510   -0.9930 n         1 MOL     -0.422366
    160 C53        -1.0520    4.3040   -1.8450 c3        1 MOL      0.166149
    161 C54        -1.2080    5.1200   -3.1250 c         1 MOL      0.471378
    162 O24        -0.2250    5.6990   -3.5860 o         1 MOL     -0.520176
    163 C55        -0.6480    2.8870   -2.1860 c3        1 MOL     -0.286269
    164 C56        -0.2600    1.9820   -1.0770 c3        1 MOL      0.725455
    165 C57         1.0950    2.3910   -0.5490 c         1 MOL      0.291977
    166 O25         1.4810    3.5680   -0.2690 o         1 MOL     -0.532450
    167 O26         1.9280    1.4940   -0.3860 o         1 MOL     -0.532450
    168 H71        -2.9140    3.4740   -1.0740 hn        1 MOL      0.341815
    169 H72        -0.2110    4.8290   -1.4050 h1        1 MOL      0.070573
    170 H73         0.1390    2.8560   -2.9420 hc        1 MOL      0.023030
    171 H74        -1.5570    2.4360   -2.6000 hc        1 MOL      0.023030
    172 H75        -0.2870    0.9370   -1.3840 hc        1 MOL     -0.243235
    173 H76        -1.0250    2.0210   -0.3160 hc        1 MOL     -0.243235
    174 N15        -2.4330    5.0650   -3.7120 n         1 MOL     -0.317053
    175 C58        -2.8200    5.9110   -4.8660 c3        1 MOL     -0.242328
    176 H77        -3.2040    6.8650   -4.5040 h1        1 MOL      0.104156
    177 H78        -1.9490    6.0870   -5.4970 h1        1 MOL      0.104156
    178 H79        -3.5930    5.4060   -5.4440 h1        1 MOL      0.104156
    179 H80        -3.1430    4.6700   -3.1030 hn        1 MOL      0.219152
    180 Ca1         4.2750    1.9890    0.6340 Ca        1 MOL      1.741901
    181 O27         4.7850    3.6420    2.7110 oh        1 MOL     -0.777853
    182 H81         4.2000    4.3700    2.9330 ho        1 MOL      0.375273
    183 H82         4.8180    3.1120    3.5060 ho        1 MOL      0.375273
    184 O28         6.3550    0.7110    2.1140 oh        1 MOL     -0.777853
    185 H83         6.2440   -0.0120    2.7340 ho        1 MOL      0.375273
    186 H84         7.0340    0.4100    1.5160 ho        1 MOL      0.375273
    187 O29         4.2220    4.8310   -0.0880 oh        1 MOL     -0.777853
    188 H85         3.5190    5.3130   -0.5420 ho        1 MOL      0.375273
    189 H86         4.9910    4.9890   -0.6200 ho        1 MOL      0.375273
@<TRIPOS>BOND
     1    1    2 1   
     2    1    4 1   
     3    1    5 1   
     4    1    6 1   
     5    2    3 2   
     6    2    7 1   
     7    7    8 1   
     8    7   15 1   
     9    8    9 1   
    10    8   11 1   
    11    8   16 1   
    12    9   10 2   
    13    9   19 1   
    14   11   12 1   
    15   11   17 1   
    16   11   18 1   
    17   12   13 1   
    18   12   14 1   
    19   19   20 1   
    20   19   27 1   
    21   20   21 1   
    22   20   23 1   
    23   20   28 1   
    24   21   22 2   
    25   21   38 1   
    26   23   24 1   
    27   23   25 1   
    28   23   29 1   
    29   24   26 1   
    30   24   30 1   
    31   24   31 1   
    32   25   32 1   
    33   25   33 1   
    34   25   34 1   
    35   26   35 1   
    36   26   36 1   
    37   26   37 1   
    38   38   39 1   
    39   38   46 1   
    40   39   40 1   
    41   39   42 1   
    42   39   47 1   
    43   40   41 2   
    44   40   50 1   
    45   42   43 1   
    46   42   48 1   
    47   42   49 1   
    48   43   44 1   
    49   43   45 1   
    50   50   51 1   
    51   50   54 1   
    52   51   52 1   
    53   51   55 1   
    54   51   56 1   
    55   52   53 2   
    56   52   57 1   
    57   57   58 1   
    58   57   65 1   
    59   58   59 1   
    60   58   61 1   
    61   58   66 1   
    62   59   60 2   
    63   59   69 1   
    64   61   62 1   
    65   61   67 1   
    66   61   68 1   
    67   62   63 1   
    68   62   64 1   
    69   69   70 1   
    70   69   73 1   
    71   70   71 1   
    72   70   74 1   
    73   70   75 1   
    74   71   72 2   
    75   71   76 1   
    76   76   77 1   
    77   76   85 1   
    78   77   78 1   
    79   77   80 1   
    80   77   86 1   
    81   78   79 2   
    82   78   93 1   
    83   80   81 1   
    84   80   87 1   
    85   80   88 1   
    86   81   82 1   
    87   81   89 1   
    88   81   90 1   
    89   82   83 1   
    90   82   84 2   
    91   83   91 1   
    92   83   92 1   
    93   93   94 1   
    94   93  100 1   
    95   94   95 1   
    96   94   97 1   
    97   94  101 1   
    98   95   96 2   
    99   95  109 1   
   100   97   98 1   
   101   97   99 1   
   102   97  102 1   
   103   98  103 1   
   104   98  104 1   
   105   98  105 1   
   106   99  106 1   
   107   99  107 1   
   108   99  108 1   
   109  109  110 1   
   110  109  117 1   
   111  110  111 1   
   112  110  113 1   
   113  110  118 1   
   114  111  112 2   
   115  111  123 1   
   116  113  114 1   
   117  113  119 1   
   118  113  120 1   
   119  114  115 1   
   120  114  116 2   
   121  115  121 1   
   122  115  122 1   
   123  123  124 1   
   124  123  135 1   
   125  124  125 1   
   126  124  127 1   
   127  124  136 1   
   128  125  126 2   
   129  125  144 1   
   130  127  128 1   
   131  127  137 1   
   132  127  138 1   
   133  128  129 ar  
   134  128  130 ar  
   135  129  131 ar  
   136  129  139 1   
   137  130  132 ar  
   138  130  140 1   
   139  131  133 ar  
   140  131  141 1   
   141  132  133 ar  
   142  132  142 1   
   143  133  134 1   
   144  134  143 1   
   145  144  145 1   
   146  144  153 1   
   147  145  146 1   
   148  145  148 1   
   149  145  154 1   
   150  146  147 2   
   151  146  159 1   
   152  148  149 1   
   153  148  155 1   
   154  148  156 1   
   155  149  150 1   
   156  149  157 1   
   157  149  158 1   
   158  150  151 1   
   159  150  152 1   
   160  159  160 1   
   161  159  168 1   
   162  160  161 1   
   163  160  163 1   
   164  160  169 1   
   165  161  162 2   
   166  161  174 1   
   167  163  164 1   
   168  163  170 1   
   169  163  171 1   
   170  164  165 1   
   171  164  172 1   
   172  164  173 1   
   173  165  166 1   
   174  165  167 1   
   175  174  175 1   
   176  174  179 1   
   177  175  176 1   
   178  175  177 1   
   179  175  178 1   
   180  181  182 1   
   181  181  183 1   
   182  184  185 1   
   183  184  186 1   
   184  187  188 1   
   185  187  189 1   
@<TRIPOS>SUBSTRUCTURE
     1 MOL         1 TEMP              0 ****  ****    0 ROOT
