@<TRIPOS>MOLECULE
MOL
  189   185     1     0     0
SMALL
resp


@<TRIPOS>ATOM
      1 C1          4.7160    3.6320   -3.9170 c3        1 MOL     -0.378959
      2 C2          5.3240    2.7280   -2.8080 c         1 MOL      0.897420
      3 O1          4.7680    2.5800   -1.7320 o         1 MOL     -0.670892
      4 H1          3.7370    3.9880   -3.5980 hc        1 MOL      0.094421
      5 H2          5.3720    4.4850   -4.0920 hc        1 MOL      0.094421
      6 H3          4.6110    3.0590   -4.8380 hc        1 MOL      0.094421
      7 N1          6.5010    2.1050   -2.9740 n         1 MOL     -0.775783
      8 C3          7.0540    1.0860   -2.0720 c3        1 MOL      0.156672
      9 C4          6.0160    0.0380   -1.6690 c         1 MOL      0.126883
     10 O2          5.4870    0.1280   -0.5310 o         1 MOL     -0.382606
     11 C5          8.0060    1.6810   -0.9410 c3        1 MOL      0.067369
     12 C6          7.4380    2.8650   -0.2520 c         1 MOL      0.718035
     13 O3          6.6190    2.6780    0.6140 o         1 MOL     -0.742147
     14 O4          7.9090    3.9680   -0.5480 o         1 MOL     -0.742147
     15 H4          7.0050    2.2660   -3.8290 hn        1 MOL      0.341475
     16 H5          7.7410    0.4000   -2.5600 h1        1 MOL      0.072721
     17 H6          8.9690    1.9660   -1.3660 hc        1 MOL     -0.024405
     18 H7          8.3150    0.8330   -0.3260 hc        1 MOL     -0.024405
     19 N2          5.5420   -0.7380   -2.6390 n         1 MOL     -0.268178
     20 C7          4.6060   -1.8470   -2.6460 c3        1 MOL     -0.007064
     21 C8          5.0440   -3.0580   -1.7310 c         1 MOL      0.314287
     22 O5          4.9790   -4.2510   -2.0130 o         1 MOL     -0.580961
     23 C9          3.1350   -1.3860   -2.2970 c3        1 MOL      0.413544
     24 C10         2.1110   -2.4960   -2.1290 c3        1 MOL     -0.245960
     25 C11         2.7080   -0.2460   -3.2790 c3        1 MOL     -0.242915
     26 C12         1.8830   -3.2210   -3.4350 c3        1 MOL     -0.173080
     27 H8          5.9000   -0.5290   -3.5530 hn        1 MOL      0.257445
     28 H9          4.5990   -2.1520   -3.7000 h1        1 MOL      0.040251
     29 H10         3.1720   -0.8740   -1.3310 hc        1 MOL     -0.026827
     30 H11         1.2100   -2.0470   -1.7020 hc        1 MOL      0.112192
     31 H12         2.4210   -3.2460   -1.3940 hc        1 MOL      0.112192
     32 H13         3.3770    0.6010   -3.1260 hc        1 MOL      0.029514
     33 H14         2.7350   -0.6440   -4.2940 hc        1 MOL      0.029514
     34 H15         1.6620    0.0030   -3.1060 hc        1 MOL      0.029514
     35 H16         1.5120   -2.6200   -4.2620 hc        1 MOL      0.037300
     36 H17         2.8130   -3.6710   -3.7790 hc        1 MOL      0.037300
     37 H18         1.2220   -4.0650   -3.2380 hc        1 MOL      0.037300
     38 N3          5.5820   -2.7800   -0.5600 n         1 MOL      0.140469
     39 C13         6.3210   -3.7830    0.2290 c3        1 MOL      0.168358
     40 C14         5.4900   -4.8820    1.0160 c         1 MOL      0.524409
     41 O6          5.8110   -6.0960    1.1400 o         1 MOL     -0.610135
     42 C15         7.2500   -3.0420    1.1910 c3        1 MOL     -0.332673
     43 C16         8.2170   -1.9950    0.4410 c         1 MOL      0.766764
     44 O7          9.0810   -1.3200    1.1160 o         1 MOL     -0.721320
     45 O8          8.2480   -2.0300   -0.7750 o         1 MOL     -0.721320
     46 H19         5.6050   -1.8140   -0.2930 hn        1 MOL      0.016850
     47 H20         6.9780   -4.3740   -0.4140 h1        1 MOL      0.014871
     48 H21         7.8870   -3.7160    1.7630 hc        1 MOL      0.064516
     49 H22         6.6720   -2.5270    1.9510 hc        1 MOL      0.064516
     50 N4          4.2990   -4.5980    1.5190 n         1 MOL     -0.515296
     51 C17         3.5940   -3.3570    1.8330 c3        1 MOL      0.069437
     52 C18         4.0410   -2.7210    3.1580 c         1 MOL      0.460640
     53 O9          5.0190   -3.2430    3.7850 o         1 MOL     -0.536034
     54 H23         3.9460   -5.3960    2.0340 hn        1 MOL      0.282264
     55 H24         2.5320   -3.5860    1.9760 h1        1 MOL      0.061245
     56 H25         3.6830   -2.7970    0.9000 h1        1 MOL      0.061245
     57 N5          3.3380   -1.7060    3.6680 n         1 MOL     -0.446316
     58 C19         2.0860   -1.1430    3.1680 c3        1 MOL      0.008880
     59 C20         2.2070   -0.7090    1.6780 c         1 MOL     -0.067692
     60 O10         3.3480   -0.5400    1.2220 o         1 MOL     -0.126845
     61 C21         1.7820    0.1140    4.0370 c3        1 MOL     -0.131028
     62 C22         2.6960    1.2520    3.8330 c         1 MOL      0.642837
     63 O11         2.4610    1.9530    2.8100 o         1 MOL     -0.645302
     64 O12         3.6120    1.4030    4.6490 o         1 MOL     -0.645302
     65 H26         3.6910   -1.2320    4.4950 hn        1 MOL      0.316849
     66 H27         1.2680   -1.8530    3.2740 h1        1 MOL      0.058056
     67 H28         1.7130   -0.1130    5.0980 hc        1 MOL      0.026205
     68 H29         0.7710    0.4100    3.7250 hc        1 MOL      0.026205
     69 N6          1.0930   -0.3740    1.0360 n         1 MOL     -0.025873
     70 C23        -0.2060   -0.9670    1.2660 c3        1 MOL      0.272757
     71 C24        -0.3570   -2.4460    0.8880 c         1 MOL      0.524045
     72 O13         0.6310   -3.0860    0.6540 o         1 MOL     -0.509368
     73 H30         1.3000    0.0880    0.1560 hn        1 MOL     -0.128796
     74 H31        -0.9220   -0.3510    0.7310 h1        1 MOL     -0.014776
     75 H32        -0.4710   -0.7680    2.3090 h1        1 MOL     -0.014776
     76 N7         -1.5750   -2.9360    0.9900 n         1 MOL     -0.518245
     77 C25        -2.0010   -4.3910    0.9030 c3        1 MOL      0.154374
     78 C26        -2.8490   -4.7440   -0.3290 c         1 MOL      0.499034
     79 O14        -3.1400   -5.8830   -0.4820 o         1 MOL     -0.522485
     80 C27        -2.6190   -4.8480    2.2560 c3        1 MOL     -0.158037
     81 C28        -4.0520   -4.2960    2.5710 c3        1 MOL     -0.375043
     82 C29        -4.2050   -2.7870    2.2240 c         1 MOL      0.305407
     83 N8         -3.5400   -1.9250    2.9890 n         1 MOL     -0.677040
     84 O15        -4.8460   -2.3280    1.3100 o         1 MOL     -0.321867
     85 H33        -2.3020   -2.2460    1.0780 hn        1 MOL      0.236815
     86 H34        -1.0940   -4.9690    0.7070 h1        1 MOL      0.086897
     87 H35        -1.9000   -4.4950    3.0070 hc        1 MOL      0.096309
     88 H36        -2.7970   -5.9120    2.1660 hc        1 MOL      0.096309
     89 H37        -4.2660   -4.4410    3.6280 hc        1 MOL      0.154214
     90 H38        -4.7550   -4.7970    1.9050 hc        1 MOL      0.154214
     91 H39        -3.0930   -2.3810    3.7780 hn        1 MOL      0.378779
     92 H40        -3.5700   -0.9370    2.8000 hn        1 MOL      0.378779
     93 N9         -3.2260   -3.8030   -1.2150 n         1 MOL     -0.316698
     94 C30        -3.8720   -4.0470   -2.5280 c3        1 MOL     -0.090757
     95 C31        -5.2340   -3.3070   -2.7240 c         1 MOL      0.561841
     96 O16        -5.8700   -3.5150   -3.6840 o         1 MOL     -0.531085
     97 C32        -2.9370   -3.6810   -3.6660 c3        1 MOL      0.157529
     98 C33        -1.7500   -4.6530   -3.8070 c3        1 MOL     -0.134665
     99 C34        -2.3510   -2.3320   -3.4990 c3        1 MOL     -0.134665
    100 H41        -2.8690   -2.8680   -1.0860 hn        1 MOL      0.221216
    101 H42        -4.1360   -5.0980   -2.6300 h1        1 MOL      0.119857
    102 H43        -3.5410   -3.6680   -4.5710 hc        1 MOL      0.003305
    103 H44        -1.2110   -4.4960   -4.7410 hc        1 MOL      0.028057
    104 H45        -1.0620   -4.5440   -2.9600 hc        1 MOL      0.028057
    105 H46        -2.1730   -5.6630   -3.8430 hc        1 MOL      0.028057
    106 H47        -1.9400   -2.0030   -4.4600 hc        1 MOL      0.028057
    107 H48        -3.0560   -1.5440   -3.2720 hc        1 MOL      0.028057
    108 H49        -1.4810   -2.2970   -2.8490 hc        1 MOL      0.028057
    109 N10        -5.6550   -2.5200   -1.7170 n         1 MOL     -0.415889
    110 C35        -7.0460   -1.9720   -1.6610 c3        1 MOL      0.075652
    111 C36        -7.1530   -0.4240   -1.5720 c         1 MOL      0.478674
    112 O17        -8.1640    0.0900   -2.0830 o         1 MOL     -0.544895
    113 C37        -7.7620   -2.4390   -0.3800 c3        1 MOL     -0.414230
    114 C38        -7.9850   -3.9350   -0.3240 c         1 MOL      0.744872
    115 N11        -8.3190   -4.3470    0.8580 n         1 MOL     -0.796828
    116 O18        -8.0540   -4.6810   -1.2750 o         1 MOL     -0.539121
    117 H50        -5.0520   -2.3570   -0.9310 hn        1 MOL      0.221999
    118 H51        -7.6460   -2.2930   -2.5250 h1        1 MOL      0.113900
    119 H52        -8.7120   -1.9160   -0.3380 hc        1 MOL      0.113311
    120 H53        -7.1280   -2.1680    0.4640 hc        1 MOL      0.113311
    121 H54        -8.4940   -3.6270    1.5490 hn        1 MOL      0.348882
    122 H55        -8.6270   -5.3030    0.9730 hn        1 MOL      0.348882
    123 N12        -6.2450    0.3220   -0.9370 n         1 MOL     -0.307635
    124 C39        -6.3190    1.7560   -0.6050 c3        1 MOL      0.233464
    125 C40        -4.9850    2.5040   -0.3350 c         1 MOL      0.406722
    126 O19        -4.0170    1.7860    0.0100 o         1 MOL     -0.434004
    127 C41        -7.4130    2.0650    0.4970 c3        1 MOL     -0.497682
    128 C42        -6.9080    1.6310    1.8640 ca        1 MOL      0.239774
    129 C43        -7.1980    0.2910    2.3410 ca        1 MOL     -0.243214
    130 C44        -6.1930    2.4910    2.7000 ca        1 MOL     -0.243214
    131 C45        -6.6750   -0.1620    3.6260 ca        1 MOL     -0.247847
    132 C46        -5.6350    2.0650    3.9390 ca        1 MOL     -0.247847
    133 C47        -5.9400    0.7480    4.4030 ca        1 MOL      0.280237
    134 O20        -5.3530    0.3420    5.5520 oh        1 MOL     -0.442567
    135 H56        -5.3190   -0.0290   -0.7470 hn        1 MOL      0.156139
    136 H57        -6.7090    2.2090   -1.5250 h1        1 MOL      0.018670
    137 H58        -8.3420    1.5430    0.2510 hc        1 MOL      0.162447
    138 H59        -7.5730    3.1370    0.4300 hc        1 MOL      0.162447
    139 H60        -7.7750   -0.3760    1.7140 ha        1 MOL      0.144221
    140 H61        -6.0360    3.4980    2.3350 ha        1 MOL      0.144221
    141 H62        -6.7670   -1.1770    3.9720 ha        1 MOL      0.168892
    142 H63        -5.1460    2.7480    4.6080 ha        1 MOL      0.168892
    143 H64        -5.4540   -0.6120    5.6660 ho        1 MOL      0.311144
    144 N13        -4.9650    3.8530   -0.2720 n         1 MOL     -0.646104
    145 C48        -3.8260    4.7800    0.0520 c3        1 MOL      0.022766
    146 C49        -2.7570    4.8740   -1.0540 c         1 MOL      0.532673
    147 O21        -2.4920    5.9940   -1.5220 o         1 MOL     -0.487531
    148 C50        -3.4530    4.5860    1.5650 c3        1 MOL      0.133450
    149 C51        -2.3120    5.4750    2.1410 c3        1 MOL     -0.528663
    150 C52        -2.6320    6.9650    2.2540 c         1 MOL      0.840908
    151 O22        -3.7150    7.4470    1.9810 o         1 MOL     -0.761406
    152 O23        -1.6550    7.6770    2.6490 o         1 MOL     -0.761406
    153 H65        -5.8950    4.2370   -0.3130 hn        1 MOL      0.358957
    154 H66        -4.2190    5.7940   -0.0320 h1        1 MOL      0.081407
    155 H67        -3.0480    3.5940    1.7510 hc        1 MOL      0.050681
    156 H68        -4.3500    4.7680    2.1520 hc        1 MOL      0.050681
    157 H69        -1.4530    5.2530    1.4890 hc        1 MOL      0.112462
    158 H70        -2.0000    5.1490    3.1330 hc        1 MOL      0.112462
    159 N14        -2.3240    3.7000   -1.4860 n         1 MOL     -0.303087
    160 C53        -1.2610    3.5730   -2.5100 c3        1 MOL     -0.243264
    161 C54        -1.7660    3.9720   -3.9010 c         1 MOL      0.492570
    162 O24        -1.2230    4.6770   -4.7040 o         1 MOL     -0.521127
    163 C55        -0.7240    2.1460   -2.5080 c3        1 MOL      0.144289
    164 C56        -0.2890    1.6920   -1.0800 c3        1 MOL      0.585741
    165 C57         0.8900    2.4880   -0.5820 c         1 MOL      0.628849
    166 O25         2.0170    1.9870   -0.5520 o         1 MOL     -0.683896
    167 O26         0.5960    3.6500   -0.1620 o         1 MOL     -0.683896
    168 H71        -2.5590    2.8810   -0.9450 hn        1 MOL      0.256387
    169 H72        -0.3950    4.1770   -2.2640 h1        1 MOL      0.194742
    170 H73         0.1380    2.1080   -3.1800 hc        1 MOL     -0.077106
    171 H74        -1.5640    1.5820   -2.9010 hc        1 MOL     -0.077106
    172 H75        -0.0240    0.6270   -1.1020 hc        1 MOL     -0.234226
    173 H76        -1.1320    1.7740   -0.3940 hc        1 MOL     -0.234226
    174 N15        -3.0380    3.5670   -4.1260 n         1 MOL     -0.183018
    175 C58        -3.8540    4.0400   -5.1520 c3        1 MOL     -0.329549
    176 H77        -4.8510    4.2410   -4.7600 h1        1 MOL      0.112077
    177 H78        -3.4330    4.9590   -5.5580 h1        1 MOL      0.112077
    178 H79        -3.9200    3.2900   -5.9410 h1        1 MOL      0.112077
    179 H80        -3.4700    2.9310   -3.4540 hn        1 MOL      0.219537
    180 Ca1         4.1810    2.0950    0.7570 Ca        1 MOL      1.731085
    181 O27         5.0120    4.0050    2.7140 oh        1 MOL     -0.810878
    182 H81         4.5690    4.7120    2.2580 ho        1 MOL      0.386921
    183 H82         5.2000    4.3530    3.5800 ho        1 MOL      0.386921
    184 O28         5.7220    0.5770    2.7070 oh        1 MOL     -0.810878
    185 H83         5.7740    0.4570    3.6610 ho        1 MOL      0.386921
    186 H84         6.5490    0.2010    2.3850 ho        1 MOL      0.386921
    187 O29         3.1270    4.6000    0.4670 oh        1 MOL     -0.810878
    188 H85         3.0380    5.4820    0.1060 ho        1 MOL      0.386921
    189 H86         2.2300    4.2700    0.5000 ho        1 MOL      0.386921
@<TRIPOS>BOND
     1    1    2 1   
     2    1    4 1   
     3    1    5 1   
     4    1    6 1   
     5    2    3 2   
     6    2    7 1   
     7    7    8 1   
     8    7   15 1   
     9    8    9 1   
    10    8   11 1   
    11    8   16 1   
    12    9   10 2   
    13    9   19 1   
    14   11   12 1   
    15   11   17 1   
    16   11   18 1   
    17   12   13 1   
    18   12   14 1   
    19   19   20 1   
    20   19   27 1   
    21   20   21 1   
    22   20   23 1   
    23   20   28 1   
    24   21   22 2   
    25   21   38 1   
    26   23   24 1   
    27   23   25 1   
    28   23   29 1   
    29   24   26 1   
    30   24   30 1   
    31   24   31 1   
    32   25   32 1   
    33   25   33 1   
    34   25   34 1   
    35   26   35 1   
    36   26   36 1   
    37   26   37 1   
    38   38   39 1   
    39   38   46 1   
    40   39   40 1   
    41   39   42 1   
    42   39   47 1   
    43   40   41 2   
    44   40   50 1   
    45   42   43 1   
    46   42   48 1   
    47   42   49 1   
    48   43   44 1   
    49   43   45 1   
    50   50   51 1   
    51   50   54 1   
    52   51   52 1   
    53   51   55 1   
    54   51   56 1   
    55   52   53 2   
    56   52   57 1   
    57   57   58 1   
    58   57   65 1   
    59   58   59 1   
    60   58   61 1   
    61   58   66 1   
    62   59   60 2   
    63   59   69 1   
    64   61   62 1   
    65   61   67 1   
    66   61   68 1   
    67   62   63 1   
    68   62   64 1   
    69   69   70 1   
    70   69   73 1   
    71   70   71 1   
    72   70   74 1   
    73   70   75 1   
    74   71   72 2   
    75   71   76 1   
    76   76   77 1   
    77   76   85 1   
    78   77   78 1   
    79   77   80 1   
    80   77   86 1   
    81   78   79 2   
    82   78   93 1   
    83   80   81 1   
    84   80   87 1   
    85   80   88 1   
    86   81   82 1   
    87   81   89 1   
    88   81   90 1   
    89   82   83 1   
    90   82   84 2   
    91   83   91 1   
    92   83   92 1   
    93   93   94 1   
    94   93  100 1   
    95   94   95 1   
    96   94   97 1   
    97   94  101 1   
    98   95   96 2   
    99   95  109 1   
   100   97   98 1   
   101   97   99 1   
   102   97  102 1   
   103   98  103 1   
   104   98  104 1   
   105   98  105 1   
   106   99  106 1   
   107   99  107 1   
   108   99  108 1   
   109  109  110 1   
   110  109  117 1   
   111  110  111 1   
   112  110  113 1   
   113  110  118 1   
   114  111  112 2   
   115  111  123 1   
   116  113  114 1   
   117  113  119 1   
   118  113  120 1   
   119  114  115 1   
   120  114  116 2   
   121  115  121 1   
   122  115  122 1   
   123  123  124 1   
   124  123  135 1   
   125  124  125 1   
   126  124  127 1   
   127  124  136 1   
   128  125  126 2   
   129  125  144 1   
   130  127  128 1   
   131  127  137 1   
   132  127  138 1   
   133  128  129 ar  
   134  128  130 ar  
   135  129  131 ar  
   136  129  139 1   
   137  130  132 ar  
   138  130  140 1   
   139  131  133 ar  
   140  131  141 1   
   141  132  133 ar  
   142  132  142 1   
   143  133  134 1   
   144  134  143 1   
   145  144  145 1   
   146  144  153 1   
   147  145  146 1   
   148  145  148 1   
   149  145  154 1   
   150  146  147 2   
   151  146  159 1   
   152  148  149 1   
   153  148  155 1   
   154  148  156 1   
   155  149  150 1   
   156  149  157 1   
   157  149  158 1   
   158  150  151 1   
   159  150  152 1   
   160  159  160 1   
   161  159  168 1   
   162  160  161 1   
   163  160  163 1   
   164  160  169 1   
   165  161  162 2   
   166  161  174 1   
   167  163  164 1   
   168  163  170 1   
   169  163  171 1   
   170  164  165 1   
   171  164  172 1   
   172  164  173 1   
   173  165  166 1   
   174  165  167 1   
   175  174  175 1   
   176  174  179 1   
   177  175  176 1   
   178  175  177 1   
   179  175  178 1   
   180  181  182 1   
   181  181  183 1   
   182  184  185 1   
   183  184  186 1   
   184  187  188 1   
   185  187  189 1   
@<TRIPOS>SUBSTRUCTURE
     1 MOL         1 TEMP              0 ****  ****    0 ROOT
