@<TRIPOS>MOLECULE
MOL
  175   173     1     0     0
SMALL
resp


@<TRIPOS>ATOM
      1 C1          7.2840   -7.4380    2.5360 c3        1 MOL     -0.336185
      2 C2          7.8870   -6.5990    1.4050 c         1 MOL      0.758951
      3 O1          7.6580   -6.9870    0.2600 o         1 MOL     -0.583595
      4 H1          6.3390   -6.9970    2.8500 hc        1 MOL      0.079510
      5 H2          7.1110   -8.4550    2.1830 hc        1 MOL      0.079510
      6 H3          7.9730   -7.4590    3.3810 hc        1 MOL      0.079510
      7 N1          8.6600   -5.4690    1.6340 n         1 MOL     -0.750790
      8 C3          9.3730   -4.7340    0.6290 c3        1 MOL      0.460870
      9 C4          8.5340   -3.6740   -0.0700 c         1 MOL      0.505603
     10 O2          8.9630   -2.5340   -0.1630 o         1 MOL     -0.521460
     11 C5         10.7760   -4.2360    1.1180 c3        1 MOL     -0.311958
     12 C6         11.5150   -3.5880   -0.0530 c         1 MOL      0.735309
     13 O3         11.3870   -4.0790   -1.2380 o         1 MOL     -0.734526
     14 O4         12.2740   -2.6360    0.2490 o         1 MOL     -0.734526
     15 H4          8.5540   -5.0110    2.5250 hn        1 MOL      0.321024
     16 H5          9.5920   -5.4440   -0.1720 h1        1 MOL     -0.030233
     17 H6         11.3650   -5.0650    1.5060 hc        1 MOL      0.033565
     18 H7         10.5130   -3.4760    1.8520 hc        1 MOL      0.033565
     19 N2          7.3000   -4.0170   -0.4710 n         1 MOL     -0.634544
     20 C7          6.3510   -3.1460   -1.1300 c3        1 MOL      0.593447
     21 C8          5.3460   -2.5850   -0.1440 c         1 MOL      0.370492
     22 O5          4.9780   -3.2860    0.8240 o         1 MOL     -0.550038
     23 C9          5.7760   -3.9990   -2.2110 c3        1 MOL     -0.520712
     24 H8          7.0970   -5.0040   -0.4470 hn        1 MOL      0.274706
     25 H9          6.9140   -2.2830   -1.4880 h1        1 MOL     -0.045841
     26 H10         5.1530   -4.7600   -1.7340 hc        1 MOL      0.132189
     27 H11         5.0280   -3.4060   -2.7400 hc        1 MOL      0.132189
     28 H12         6.6110   -4.3720   -2.7970 hc        1 MOL      0.132189
     29 N3          4.7950   -1.3910   -0.3140 n         1 MOL     -0.369742
     30 C10         5.0650   -0.2690   -1.2250 c3        1 MOL      0.081505
     31 C11         5.3970    1.0950   -0.5220 c         1 MOL      0.409527
     32 O6          4.6340    1.5800    0.3040 o         1 MOL     -0.484075
     33 C12         4.0450   -0.1560   -2.3410 c3        1 MOL     -0.087909
     34 C13         2.6880    0.2680   -1.8330 c         1 MOL      0.777173
     35 O7          1.8890   -0.5180   -1.2860 o         1 MOL     -0.753141
     36 O8          2.3320    1.4650   -1.9600 o         1 MOL     -0.753141
     37 H13         4.2120   -1.0590    0.4540 hn        1 MOL      0.300179
     38 H14         6.0500   -0.4730   -1.6520 h1        1 MOL      0.007153
     39 H15         3.9560   -1.1380   -2.7890 hc        1 MOL      0.010007
     40 H16         4.5060    0.4420   -3.1210 hc        1 MOL      0.010007
     41 N4          6.4650    1.8130   -0.9620 n         1 MOL     -0.394512
     42 C14         6.6450    3.2650   -0.7610 c3        1 MOL      0.078162
     43 C15         6.4040    3.9200   -2.1210 c         1 MOL      0.494156
     44 O9          7.2240    3.8220   -3.0110 o         1 MOL     -0.524164
     45 H17         7.0090    1.3240   -1.6620 hn        1 MOL      0.315742
     46 H18         7.6640    3.4080   -0.4190 h1        1 MOL      0.052445
     47 H19         5.9860    3.5990    0.0510 h1        1 MOL      0.052445
     48 N5          5.1650    4.4900   -2.3640 n         1 MOL     -0.506504
     49 C16         3.9770    4.4690   -1.5200 c3        1 MOL      0.005393
     50 C17         4.1310    5.1850   -0.1410 c         1 MOL      0.553639
     51 O10         4.8840    6.1740   -0.0020 o         1 MOL     -0.554621
     52 C18         2.7940    5.1940   -2.3240 c3        1 MOL     -0.304986
     53 C19         1.5040    5.1690   -1.6280 c         1 MOL      0.699224
     54 N6          1.0050    6.2440   -1.1080 n         1 MOL     -0.708265
     55 O11         0.9870    4.0580   -1.4250 o         1 MOL     -0.593434
     56 H20         5.1060    4.7060   -3.3530 hn        1 MOL      0.329179
     57 H21         3.6810    3.4310   -1.3780 h1        1 MOL      0.126418
     58 H22         2.6800    4.8420   -3.3490 hc        1 MOL      0.104535
     59 H23         3.0630    6.2000   -2.6330 hc        1 MOL      0.104535
     60 H24         1.4800    7.1260   -1.2090 hn        1 MOL      0.323891
     61 H25         0.0330    6.2120   -0.8230 hn        1 MOL      0.323891
     62 N7          3.3140    4.6850    0.8160 n         1 MOL     -0.325991
     63 C20         3.1460    5.1370    2.1320 c3        1 MOL     -0.117298
     64 C21         1.6630    5.2990    2.6560 c         1 MOL      0.431665
     65 O12         1.4510    5.6370    3.7900 o         1 MOL     -0.570519
     66 H26         2.8080    3.8390    0.6120 hn        1 MOL      0.351385
     67 H27         3.6230    6.0980    2.3050 h1        1 MOL      0.093394
     68 H28         3.6620    4.4500    2.8140 h1        1 MOL      0.093394
     69 N8          0.6570    5.0480    1.8530 n         1 MOL      0.186678
     70 C22        -0.7930    5.1300    2.0790 c3        1 MOL     -0.388418
     71 C23        -1.3280    3.6940    2.0550 c         1 MOL      0.485311
     72 O13        -0.8950    2.8480    1.2690 o         1 MOL     -0.469131
     73 C24        -1.5840    6.1160    1.2280 c3        1 MOL      0.491841
     74 C25        -1.2510    7.5910    1.4900 c3        1 MOL     -0.449336
     75 O14        -1.4990    5.7450   -0.1090 oh        1 MOL     -0.537608
     76 H29         0.9850    4.8030    0.9400 hn        1 MOL     -0.138675
     77 H30        -0.8600    5.4900    3.1090 h1        1 MOL      0.119407
     78 H31        -2.6600    6.1270    1.4390 h1        1 MOL     -0.011575
     79 H32        -2.2550    6.2310   -0.4250 ho        1 MOL      0.392286
     80 H33        -0.2340    7.7300    1.1150 hc        1 MOL      0.110553
     81 H34        -1.9130    8.2280    0.8990 hc        1 MOL      0.110553
     82 H35        -1.2790    7.8290    2.5460 hc        1 MOL      0.110553
     83 N9         -2.3860    3.4260    2.7670 n         1 MOL     -0.203773
     84 C26        -3.2600    2.2370    2.5390 c3        1 MOL     -0.255885
     85 C27        -4.0890    2.7000    1.3690 c         1 MOL      0.551236
     86 O15        -4.8090    3.6980    1.4440 o         1 MOL     -0.580665
     87 C28        -4.1440    1.9910    3.7720 c3        1 MOL      0.117678
     88 C29        -5.1410    0.8130    3.3690 c3        1 MOL      0.313666
     89 C30        -3.2530    1.6510    5.0500 c3        1 MOL     -0.416280
     90 C31        -6.1070    0.4860    4.5780 c3        1 MOL     -0.254555
     91 H36        -2.7550    4.1070    3.4110 hn        1 MOL      0.232785
     92 H37        -2.6370    1.3730    2.3090 h1        1 MOL      0.157910
     93 H38        -4.7850    2.8570    3.9640 hc        1 MOL      0.016196
     94 H39        -4.7040   -0.1790    3.2250 hc        1 MOL     -0.062137
     95 H40        -5.7510    1.1790    2.5400 hc        1 MOL     -0.062137
     96 H41        -3.8670    1.3870    5.9100 hc        1 MOL      0.109876
     97 H42        -2.5450    0.8510    4.8950 hc        1 MOL      0.109876
     98 H43        -2.6230    2.5330    5.1480 hc        1 MOL      0.109876
     99 H44        -5.5230   -0.0250    5.3490 hc        1 MOL      0.044023
    100 H45        -6.5360    1.3960    4.9850 hc        1 MOL      0.044023
    101 H46        -7.0170   -0.0300    4.2730 hc        1 MOL      0.044023
    102 N10        -4.0670    1.9960    0.1660 n         1 MOL     -0.359354
    103 C32        -4.8730    2.4510   -0.9870 c3        1 MOL      0.134001
    104 C33        -5.7480    1.3340   -1.5970 c         1 MOL      0.400389
    105 O16        -6.2050    1.4040   -2.7390 o         1 MOL     -0.488039
    106 C34        -3.9890    3.2180   -2.0030 c3        1 MOL     -0.196362
    107 C35        -2.7810    2.4760   -2.3890 c         1 MOL      0.806134
    108 O17        -2.8190    1.3730   -2.8880 o         1 MOL     -0.706003
    109 O18        -1.7250    3.0500   -2.2230 o         1 MOL     -0.706003
    110 H47        -3.3970    1.2330    0.1080 hn        1 MOL      0.153606
    111 H48        -5.5880    3.1840   -0.6040 h1        1 MOL      0.063907
    112 H49        -3.6810    4.1200   -1.4840 hc        1 MOL      0.029826
    113 H50        -4.6360    3.4910   -2.8470 hc        1 MOL      0.029826
    114 N11        -5.8820    0.1390   -0.8610 n         1 MOL     -0.328781
    115 C36        -6.7700   -0.9690   -1.2460 c3        1 MOL      0.045387
    116 C37        -6.2420   -2.2940   -0.6630 c         1 MOL      0.596782
    117 O19        -5.9710   -2.3830    0.5170 o         1 MOL     -0.577804
    118 C38        -8.2010   -0.7050   -0.6960 c3        1 MOL     -0.239873
    119 C39        -9.2330   -1.7440   -1.0480 ca        1 MOL      0.136002
    120 C40        -9.3340   -2.9230   -0.2750 ca        1 MOL     -0.174648
    121 C41       -10.0090   -1.6190   -2.1970 ca        1 MOL     -0.174648
    122 C42       -10.2390   -3.9190   -0.6090 ca        1 MOL     -0.105934
    123 C43       -10.8720   -2.6900   -2.5760 ca        1 MOL     -0.105934
    124 C44       -11.0570   -3.8010   -1.7520 ca        1 MOL     -0.148903
    125 H51        -5.4260    0.0450    0.0330 hn        1 MOL      0.188266
    126 H52        -6.8080   -1.0410   -2.3340 h1        1 MOL      0.095992
    127 H53        -8.5730    0.2580   -1.0230 hc        1 MOL      0.098228
    128 H54        -8.0470   -0.6720    0.3890 hc        1 MOL      0.098228
    129 H55        -8.7510   -3.1370    0.5980 ha        1 MOL      0.132025
    130 H56        -9.9110   -0.7090   -2.7660 ha        1 MOL      0.132025
    131 H57       -10.2970   -4.7300    0.1010 ha        1 MOL      0.104850
    132 H58       -11.5080   -2.5330   -3.4390 ha        1 MOL      0.104850
    133 H59       -11.7330   -4.5780   -2.0650 ha        1 MOL      0.113633
    134 N12        -6.1050   -3.4240   -1.3950 n         1 MOL     -0.350547
    135 C45        -5.9660   -4.7760   -0.7230 c3        1 MOL      0.001704
    136 C46        -4.6510   -5.0200    0.0970 c         1 MOL      0.280632
    137 O20        -4.5780   -6.0400    0.7520 o         1 MOL     -0.525449
    138 C47        -6.0810   -5.8220   -1.8940 c3        1 MOL     -0.154547
    139 C48        -7.0260   -5.0560   -2.8470 c3        1 MOL     -0.055506
    140 C49        -6.4840   -3.6450   -2.7310 c3        1 MOL     -0.033268
    141 H60        -6.8940   -4.7270   -0.1460 h1        1 MOL      0.123166
    142 H61        -5.1000   -5.9640   -2.3360 hc        1 MOL      0.096803
    143 H62        -6.5990   -6.7000   -1.5040 hc        1 MOL      0.096803
    144 H63        -6.9550   -5.4830   -3.8380 hc        1 MOL      0.044354
    145 H64        -8.0370   -5.1130   -2.4430 hc        1 MOL      0.044354
    146 H65        -5.5880   -3.6210   -3.3550 h1        1 MOL      0.070702
    147 H66        -7.0850   -2.9190   -3.2770 h1        1 MOL      0.070702
    148 N13        -3.7030   -4.1360    0.0910 n         1 MOL      0.007701
    149 C50        -2.4020   -4.2100    0.7440 c3        1 MOL     -0.349550
    150 C51        -2.4470   -4.4070    2.1880 c         1 MOL      0.568382
    151 O21        -1.4310   -4.7940    2.7170 o         1 MOL     -0.559237
    152 C52        -1.5580   -2.9960    0.3470 c3        1 MOL      0.241791
    153 C53        -1.9940   -1.7770    1.1850 c3        1 MOL     -0.085192
    154 C54        -1.3960   -0.5480    0.6600 c         1 MOL      0.491215
    155 O22        -2.0110    0.1300   -0.1920 o         1 MOL     -0.627207
    156 O23        -0.2910   -0.2010    1.1160 o         1 MOL     -0.627207
    157 H67        -3.9080   -3.2710   -0.3890 hn        1 MOL      0.170641
    158 H68        -1.8230   -5.0520    0.3600 h1        1 MOL      0.148995
    159 H69        -1.7540   -2.8920   -0.7170 hc        1 MOL     -0.006518
    160 H70        -0.4830   -3.1890    0.3910 hc        1 MOL     -0.006518
    161 H71        -1.7520   -1.9680    2.2320 hc        1 MOL      0.026003
    162 H72        -3.0820   -1.7850    1.1780 hc        1 MOL      0.026003
    163 N14        -3.4440   -4.0560    2.9780 n         1 MOL     -0.189696
    164 C55        -3.6410   -4.3290    4.4100 c3        1 MOL     -0.205101
    165 H73        -4.6590   -4.6850    4.5750 h1        1 MOL      0.090376
    166 H74        -2.9340   -5.0910    4.7360 h1        1 MOL      0.090376
    167 H75        -3.4790   -3.4140    4.9800 h1        1 MOL      0.090376
    168 H76        -4.2400   -3.5830    2.5730 hn        1 MOL      0.229990
    169 Ca1         0.1000    1.6380   -0.7930 Ca        1 MOL      1.666893
    170 O24        -0.3220    0.8590   -3.4630 oh        1 MOL     -0.847961
    171 H77        -0.2840   -0.0630   -3.7330 ho        1 MOL      0.391173
    172 H78        -1.2320    1.0090   -3.2420 ho        1 MOL      0.391173
    173 O25         2.1140    2.0310    0.9720 oh        1 MOL     -0.847961
    174 H79         3.0080    1.8920    0.6650 ho        1 MOL      0.391173
    175 H80         2.1280    1.7210    1.8780 ho        1 MOL      0.391173
@<TRIPOS>BOND
     1    1    2 1   
     2    1    4 1   
     3    1    5 1   
     4    1    6 1   
     5    2    3 2   
     6    2    7 1   
     7    7    8 1   
     8    7   15 1   
     9    8    9 1   
    10    8   11 1   
    11    8   16 1   
    12    9   10 2   
    13    9   19 1   
    14   11   12 1   
    15   11   17 1   
    16   11   18 1   
    17   12   13 1   
    18   12   14 1   
    19   19   20 1   
    20   19   24 1   
    21   20   21 1   
    22   20   23 1   
    23   20   25 1   
    24   21   22 2   
    25   21   29 1   
    26   23   26 1   
    27   23   27 1   
    28   23   28 1   
    29   29   30 1   
    30   29   37 1   
    31   30   31 1   
    32   30   33 1   
    33   30   38 1   
    34   31   32 2   
    35   31   41 1   
    36   33   34 1   
    37   33   39 1   
    38   33   40 1   
    39   34   35 1   
    40   34   36 1   
    41   41   42 1   
    42   41   45 1   
    43   42   43 1   
    44   42   46 1   
    45   42   47 1   
    46   43   44 2   
    47   43   48 1   
    48   48   49 1   
    49   48   56 1   
    50   49   50 1   
    51   49   52 1   
    52   49   57 1   
    53   50   51 2   
    54   50   62 1   
    55   52   53 1   
    56   52   58 1   
    57   52   59 1   
    58   53   54 1   
    59   53   55 2   
    60   54   60 1   
    61   54   61 1   
    62   62   63 1   
    63   62   66 1   
    64   63   64 1   
    65   63   67 1   
    66   63   68 1   
    67   64   65 2   
    68   64   69 1   
    69   69   70 1   
    70   69   76 1   
    71   70   71 1   
    72   70   73 1   
    73   70   77 1   
    74   71   72 2   
    75   71   83 1   
    76   73   74 1   
    77   73   75 1   
    78   73   78 1   
    79   74   80 1   
    80   74   81 1   
    81   74   82 1   
    82   75   79 1   
    83   83   84 1   
    84   83   91 1   
    85   84   85 1   
    86   84   87 1   
    87   84   92 1   
    88   85   86 2   
    89   85  102 1   
    90   87   88 1   
    91   87   89 1   
    92   87   93 1   
    93   88   90 1   
    94   88   94 1   
    95   88   95 1   
    96   89   96 1   
    97   89   97 1   
    98   89   98 1   
    99   90   99 1   
   100   90  100 1   
   101   90  101 1   
   102  102  103 1   
   103  102  110 1   
   104  103  104 1   
   105  103  106 1   
   106  103  111 1   
   107  104  105 2   
   108  104  114 1   
   109  106  107 1   
   110  106  112 1   
   111  106  113 1   
   112  107  108 1   
   113  107  109 1   
   114  114  115 1   
   115  114  125 1   
   116  115  116 1   
   117  115  118 1   
   118  115  126 1   
   119  116  117 2   
   120  116  134 1   
   121  118  119 1   
   122  118  127 1   
   123  118  128 1   
   124  119  120 ar  
   125  119  121 ar  
   126  120  122 ar  
   127  120  129 1   
   128  121  123 ar  
   129  121  130 1   
   130  122  124 ar  
   131  122  131 1   
   132  123  124 ar  
   133  123  132 1   
   134  124  133 1   
   135  134  135 1   
   136  134  140 1   
   137  135  136 1   
   138  135  138 1   
   139  135  141 1   
   140  136  137 2   
   141  136  148 1   
   142  138  139 1   
   143  138  142 1   
   144  138  143 1   
   145  139  140 1   
   146  139  144 1   
   147  139  145 1   
   148  140  146 1   
   149  140  147 1   
   150  148  149 1   
   151  148  157 1   
   152  149  150 1   
   153  149  152 1   
   154  149  158 1   
   155  150  151 2   
   156  150  163 1   
   157  152  153 1   
   158  152  159 1   
   159  152  160 1   
   160  153  154 1   
   161  153  161 1   
   162  153  162 1   
   163  154  155 1   
   164  154  156 1   
   165  163  164 1   
   166  163  168 1   
   167  164  165 1   
   168  164  166 1   
   169  164  167 1   
   170  170  171 1   
   171  170  172 1   
   172  173  174 1   
   173  173  175 1   
@<TRIPOS>SUBSTRUCTURE
     1 MOL         1 TEMP              0 ****  ****    0 ROOT
