@<TRIPOS>MOLECULE
MOL
  191   184     1     0     0
SMALL
resp


@<TRIPOS>ATOM
      1 C1          5.9610    3.8040    2.2940 c3        1 MOL     -0.289924
      2 C2          6.0910    2.8230    1.1800 c         1 MOL      0.732150
      3 O1          5.4260    1.7700    1.1110 o         1 MOL     -0.657494
      4 H1          6.9460    4.0130    2.7100 hc        1 MOL      0.068284
      5 H2          5.5230    4.7280    1.9150 hc        1 MOL      0.068284
      6 H3          5.3200    3.3890    3.0710 hc        1 MOL      0.068284
      7 N1          7.0740    3.0690    0.3450 n         1 MOL     -0.630913
      8 C3          7.7050    2.2620   -0.7240 c3        1 MOL      0.187584
      9 C4          8.3320    0.9250   -0.3130 c         1 MOL      0.373257
     10 O2          9.0960    0.3320   -1.0590 o         1 MOL     -0.448303
     11 C5          6.8300    2.1630   -1.9770 c3        1 MOL     -0.177226
     12 C6          7.6470    2.0550   -3.2410 c         1 MOL      0.662336
     13 O3          7.0640    2.0130   -4.3500 o         1 MOL     -0.630194
     14 O4          8.9010    2.2240   -3.2130 o         1 MOL     -0.630194
     15 H4          7.5200    3.9620    0.5230 hn        1 MOL      0.329716
     16 H5          8.5730    2.8780   -0.9660 h1        1 MOL      0.062531
     17 H6          6.1420    3.0060   -2.0750 hc        1 MOL      0.072121
     18 H7          6.1340    1.3260   -1.9120 hc        1 MOL      0.072121
     19 N2          7.9610    0.3890    0.8620 n         1 MOL     -0.290847
     20 C7          8.1940   -0.9890    1.2820 c3        1 MOL      0.043045
     21 C8          6.9020   -1.8820    1.3600 c         1 MOL      0.649891
     22 O5          6.9840   -3.0010    1.8610 o         1 MOL     -0.568019
     23 C9          8.9890   -0.9850    2.6450 c3        1 MOL     -0.246916
     24 C10         8.1490   -0.2790    3.7080 c3        1 MOL     -0.051770
     25 C11         8.9840   -0.0950    4.9180 c3        1 MOL      0.061607
     26 C12         8.5340    0.9710    5.8590 c3        1 MOL     -0.047266
     27 N3          7.4860    0.4330    6.7480 n4        1 MOL     -0.271793
     28 H8          7.2710    0.9230    1.3580 hn        1 MOL      0.149913
     29 H9          8.8390   -1.4980    0.5740 h1        1 MOL      0.106649
     30 H10         9.9720   -0.5400    2.5520 hc        1 MOL      0.099255
     31 H11         9.0740   -2.0020    3.0240 hc        1 MOL      0.099255
     32 H12         7.2880   -0.8750    4.0110 hc        1 MOL      0.048503
     33 H13         7.9060    0.7290    3.3730 hc        1 MOL      0.048503
     34 H14        10.0230    0.1200    4.6560 hc        1 MOL      0.024921
     35 H15         9.0990   -1.0170    5.4850 hc        1 MOL      0.024921
     36 H16         8.1050    1.8250    5.3260 hx        1 MOL      0.090496
     37 H17         9.3180    1.4360    6.4550 hx        1 MOL      0.090496
     38 H18         7.8520   -0.3300    7.3100 hn        1 MOL      0.242746
     39 H19         7.2150    1.1600    7.3990 hn        1 MOL      0.242746
     40 H20         6.7110    0.0240    6.2500 hn        1 MOL      0.242746
     41 N4          5.7200   -1.4540    0.8400 n         1 MOL     -0.656097
     42 C13         4.5000   -2.3230    0.8160 c3        1 MOL      0.114437
     43 C14         4.4660   -3.1970   -0.4720 c         1 MOL      0.374930
     44 O6          5.0380   -2.8100   -1.5180 o         1 MOL     -0.446428
     45 C15         3.2160   -1.4770    0.9170 c3        1 MOL      0.401962
     46 C16         1.8580   -2.2390    1.1060 c         1 MOL      0.070775
     47 O7          1.1890   -2.6510    0.0810 o         1 MOL     -0.538117
     48 O8          1.4940   -2.5550    2.2640 o         1 MOL     -0.538117
     49 H21         5.7380   -0.5680    0.3700 hn        1 MOL      0.358150
     50 H22         4.5450   -2.9900    1.6700 h1        1 MOL      0.043603
     51 H23         3.2370   -0.8380    0.0320 hc        1 MOL     -0.068697
     52 H24         3.3830   -0.8910    1.8090 hc        1 MOL     -0.068697
     53 N5          3.7220   -4.2530   -0.4590 n         1 MOL     -0.159641
     54 C17         3.4820   -5.1750   -1.5560 c3        1 MOL     -0.436169
     55 C18         2.5490   -4.7260   -2.6620 c         1 MOL      0.588937
     56 O9          2.7180   -5.1770   -3.7910 o         1 MOL     -0.536355
     57 H25         3.5720   -4.6750    0.4460 hn        1 MOL      0.258546
     58 H26         3.1130   -6.1070   -1.1260 h1        1 MOL      0.186584
     59 H27         4.4030   -5.4100   -2.0770 h1        1 MOL      0.186584
     60 N6          1.5930   -3.8010   -2.4080 n         1 MOL     -0.303530
     61 C19         0.8190   -3.0630   -3.3980 c3        1 MOL     -0.083184
     62 C20         1.3690   -1.6490   -3.7550 c         1 MOL      0.410631
     63 O10         0.6270   -0.8540   -4.3490 o         1 MOL     -0.488408
     64 C21        -0.5590   -2.9340   -2.8260 c3        1 MOL      0.068489
     65 C22        -1.1160   -4.2080   -2.3430 c         1 MOL      0.446397
     66 N7         -1.5640   -5.0800   -3.2460 n         1 MOL     -0.715225
     67 O11        -1.2040   -4.4020   -1.1320 o         1 MOL     -0.501014
     68 H28         1.3520   -3.5610   -1.4570 hn        1 MOL      0.174059
     69 H29         0.7380   -3.6540   -4.3120 h1        1 MOL      0.111035
     70 H30        -1.2690   -2.5740   -3.5700 hc        1 MOL      0.011741
     71 H31        -0.5740   -2.1850   -2.0400 hc        1 MOL      0.011741
     72 H32        -1.4480   -4.8410   -4.2170 hn        1 MOL      0.381419
     73 H33        -2.1040   -5.8160   -2.8130 hn        1 MOL      0.381419
     74 N8          2.6280   -1.3160   -3.4130 n         1 MOL     -0.147905
     75 C23         3.2990   -0.1330   -3.8630 c3        1 MOL     -0.175939
     76 C24         2.9210    1.1990   -3.1010 c         1 MOL      0.443330
     77 O12         3.4500    2.2790   -3.4160 o         1 MOL     -0.509226
     78 H34         3.1500   -1.9860   -2.8520 hn        1 MOL      0.191508
     79 H35         3.2390    0.0640   -4.9330 h1        1 MOL      0.130015
     80 H36         4.3280   -0.3460   -3.5780 h1        1 MOL      0.130015
     81 N9          2.0920    1.1700   -2.0930 n         1 MOL     -0.148649
     82 C25         1.5110    2.2970   -1.4080 c3        1 MOL     -0.068355
     83 C26         0.2200    1.9370   -0.7840 c         1 MOL      0.201899
     84 O13         0.0640    0.7870   -0.2760 o         1 MOL     -0.372220
     85 C27         2.4480    2.7940   -0.2440 c3        1 MOL     -0.090568
     86 C28         1.8620    3.9520    0.6180 ca        1 MOL      0.046307
     87 C29         1.8490    5.2980    0.1390 ca        1 MOL     -0.191293
     88 C30         1.1930    3.6880    1.8150 ca        1 MOL     -0.191293
     89 C31         1.2450    6.3310    0.8690 ca        1 MOL     -0.153411
     90 C32         0.7640    4.7780    2.6190 ca        1 MOL     -0.153411
     91 C33         0.8600    6.0880    2.2320 ca        1 MOL      0.234560
     92 O14         0.3170    7.0570    3.0410 oh        1 MOL     -0.474006
     93 H37         1.8560    0.2550   -1.7250 hn        1 MOL      0.162169
     94 H38         1.3490    3.1010   -2.1330 h1        1 MOL      0.121911
     95 H39         3.2990    3.1820   -0.8050 hc        1 MOL      0.103605
     96 H40         2.6810    1.9570    0.4200 hc        1 MOL      0.103605
     97 H41         2.1770    5.4340   -0.8840 ha        1 MOL      0.139101
     98 H42         1.0780    2.6690    2.1570 ha        1 MOL      0.139101
     99 H43         1.0920    7.3130    0.4420 ha        1 MOL      0.126357
    100 H44         0.4480    4.5710    3.6310 ha        1 MOL      0.126357
    101 H45        -0.1540    6.7610    3.8160 ho        1 MOL      0.371677
    102 N10        -0.7590    2.8590   -0.7610 n         1 MOL     -0.302513
    103 C34        -2.1470    2.5890   -0.3960 c3        1 MOL      0.045670
    104 C35        -2.8280    1.6370   -1.3230 c         1 MOL      0.155484
    105 O15        -3.4530    0.6400   -0.9640 o         1 MOL     -0.454652
    106 C36        -2.9580    3.9000   -0.2640 c3        1 MOL      0.123120
    107 C37        -2.3380    4.8770    0.8080 c3        1 MOL     -0.049425
    108 C38        -4.4550    3.7770    0.0770 c3        1 MOL     -0.401314
    109 C39        -2.5820    4.5900    2.3120 c3        1 MOL     -0.025573
    110 H46        -0.5320    3.8210   -0.9750 hn        1 MOL      0.254097
    111 H47        -2.0670    2.0070    0.5210 h1        1 MOL      0.102909
    112 H48        -2.8820    4.4770   -1.1850 hc        1 MOL     -0.016958
    113 H49        -2.8170    5.8370    0.6100 hc        1 MOL      0.031408
    114 H50        -1.2680    5.0260    0.6770 hc        1 MOL      0.031408
    115 H51        -4.8820    4.7590    0.2840 hc        1 MOL      0.129538
    116 H52        -5.0090    3.3060   -0.7310 hc        1 MOL      0.129538
    117 H53        -4.5460    3.2560    1.0240 hc        1 MOL      0.129538
    118 H54        -3.6160    4.6010    2.6520 hc        1 MOL      0.005314
    119 H55        -2.1870    3.6060    2.5960 hc        1 MOL      0.005314
    120 H56        -2.0150    5.2920    2.9260 hc        1 MOL      0.005314
    121 N11        -2.6040    1.7710   -2.6270 n         1 MOL      0.043226
    122 C40        -2.9330    0.8030   -3.6340 c3        1 MOL     -0.045629
    123 C41        -4.4690    0.7680   -3.8000 c         1 MOL      0.325905
    124 O16        -4.9880   -0.2620   -4.2600 o         1 MOL     -0.498088
    125 C42        -2.2970    1.2600   -4.9600 c3        1 MOL      0.142704
    126 O17        -0.8480    1.2870   -4.7320 oh        1 MOL     -0.601078
    127 H57        -2.1670    2.6370   -2.9040 hn        1 MOL      0.179997
    128 H58        -2.5810   -0.1820   -3.3120 h1        1 MOL      0.106320
    129 H59        -2.5310    2.2950   -5.1970 h1        1 MOL      0.061291
    130 H60        -2.5980    0.5720   -5.7510 h1        1 MOL      0.061291
    131 H61        -0.4570    0.4160   -4.8270 ho        1 MOL      0.379645
    132 N12        -5.2090    1.8280   -3.4540 n         1 MOL     -0.309109
    133 C43        -6.6880    1.8930   -3.3240 c3        1 MOL      0.162299
    134 C44        -7.2680    0.7520   -2.4090 c         1 MOL      0.417292
    135 O18        -8.5010    0.6160   -2.3360 o         1 MOL     -0.512454
    136 C45        -7.2570    1.7650   -4.7100 c3        1 MOL     -0.639220
    137 H62        -4.6560    2.6510   -3.2630 hn        1 MOL      0.193813
    138 H63        -6.8880    2.8290   -2.8110 h1        1 MOL      0.095515
    139 H64        -6.7420    2.3720   -5.4680 hc        1 MOL      0.192867
    140 H65        -7.2410    0.7320   -5.0380 hc        1 MOL      0.192867
    141 H66        -8.3030    2.0470   -4.5700 hc        1 MOL      0.192867
    142 N13        -6.4840    0.0040   -1.6670 n         1 MOL     -0.274299
    143 C46        -6.9630   -0.9200   -0.6400 c3        1 MOL      0.119841
    144 C47        -7.4860   -0.1710    0.5740 c         1 MOL      0.483391
    145 O19        -7.0470    0.9080    0.9970 o         1 MOL     -0.486954
    146 C48        -5.8120   -1.8280   -0.1490 c3        1 MOL     -0.017438
    147 H67        -5.5040    0.2620   -1.6390 hn        1 MOL      0.143838
    148 H68        -7.7990   -1.5160   -1.0200 h1        1 MOL      0.032760
    149 H69        -5.4530   -2.4670   -0.9550 hc        1 MOL      0.001629
    150 H70        -4.9630   -1.2750    0.2450 hc        1 MOL      0.001629
    151 H71        -6.1050   -2.5540    0.6130 hc        1 MOL      0.001629
    152 N14        -8.4920   -0.6900    1.2540 n         1 MOL     -0.477088
    153 C49        -9.1200   -0.1630    2.5020 c3        1 MOL      0.040181
    154 C50        -9.5850    1.3530    2.4560 c         1 MOL      0.325937
    155 O20        -9.6390    2.0620    3.4880 o         1 MOL     -0.487877
    156 C51        -8.2130   -0.4660    3.7250 c3        1 MOL      0.255668
    157 C52        -8.0060   -2.0090    3.9150 c3        1 MOL     -0.361322
    158 C53        -7.1250   -2.4180    5.0930 c         1 MOL      0.751147
    159 O21        -7.6710   -2.4590    6.2120 o         1 MOL     -0.731297
    160 O22        -5.9170   -2.6900    4.8920 o         1 MOL     -0.731297
    161 H72        -8.8040   -1.5930    0.9070 hn        1 MOL      0.298510
    162 H73        -9.9570   -0.8340    2.6910 h1        1 MOL      0.045826
    163 H74        -8.6440    0.0080    4.6040 hc        1 MOL     -0.003777
    164 H75        -7.2600    0.0290    3.5670 hc        1 MOL     -0.003777
    165 H76        -7.7160   -2.4400    2.9600 hc        1 MOL      0.047026
    166 H77        -8.9420   -2.5530    4.0580 hc        1 MOL      0.047026
    167 N15        -9.7910    1.8910    1.2510 n         1 MOL     -0.194019
    168 C54        -9.7710    3.3590    1.0090 c3        1 MOL     -0.147482
    169 H78       -10.7940    3.7320    0.9520 h1        1 MOL      0.084470
    170 H79        -9.2480    3.8550    1.8270 h1        1 MOL      0.084470
    171 H80        -9.2570    3.5660    0.0710 h1        1 MOL      0.084470
    172 H81        -9.8820    1.2540    0.4770 hn        1 MOL      0.194380
    173 Ca1        -0.8660   -3.3740    1.3090 Ca        1 MOL      1.626181
    174 O23        -2.5130   -2.0190   -0.2280 oh        1 MOL     -0.798512
    175 O24        -2.7230   -2.5130    2.8980 oh        1 MOL     -0.798512
    176 H82        -2.9790   -2.4210   -0.9530 ho        1 MOL      0.403221
    177 H83        -2.8330   -2.9690    3.7290 ho        1 MOL      0.403221
    178 H84        -2.7020   -1.0860   -0.3080 ho        1 MOL      0.403221
    179 H85        -3.0850   -1.6360    3.0600 ho        1 MOL      0.403221
    180 O25        -0.4120   -5.9630    1.6200 oh        1 MOL     -0.798512
    181 H86        -0.8510   -6.0200    2.4620 ho        1 MOL      0.403221
    182 H87         0.2480   -6.6560    1.6370 ho        1 MOL      0.403221
    183 O26        -3.0520   -4.9920    1.0430 oh        1 MOL     -0.798512
    184 H88        -3.3320   -5.5470    1.7820 ho        1 MOL      0.403221
    185 H89        -3.7730   -5.0310    0.4240 ho        1 MOL      0.403221
    186 O27        -0.8040   -4.2700    4.1960 oh        1 MOL     -0.798512
    187 H90        -1.7460   -4.4090    4.2690 ho        1 MOL      0.403221
    188 H91        -0.6560   -3.4060    4.5780 ho        1 MOL      0.403221
    189 O28        -0.6180   -0.7120    1.7140 oh        1 MOL     -0.798512
    190 H92        -0.6100    0.0400    2.3100 ho        1 MOL      0.403221
    191 H93        -0.2070   -0.3880    0.9130 ho        1 MOL      0.403221
@<TRIPOS>BOND
     1    1    2 1   
     2    1    4 1   
     3    1    5 1   
     4    1    6 1   
     5    2    3 2   
     6    2    7 1   
     7    7    8 1   
     8    7   15 1   
     9    8    9 1   
    10    8   11 1   
    11    8   16 1   
    12    9   10 2   
    13    9   19 1   
    14   11   12 1   
    15   11   17 1   
    16   11   18 1   
    17   12   13 1   
    18   12   14 1   
    19   19   20 1   
    20   19   28 1   
    21   20   21 1   
    22   20   23 1   
    23   20   29 1   
    24   21   22 2   
    25   21   41 1   
    26   23   24 1   
    27   23   30 1   
    28   23   31 1   
    29   24   25 1   
    30   24   32 1   
    31   24   33 1   
    32   25   26 1   
    33   25   34 1   
    34   25   35 1   
    35   26   27 1   
    36   26   36 1   
    37   26   37 1   
    38   27   38 1   
    39   27   39 1   
    40   27   40 1   
    41   41   42 1   
    42   41   49 1   
    43   42   43 1   
    44   42   45 1   
    45   42   50 1   
    46   43   44 2   
    47   43   53 1   
    48   45   46 1   
    49   45   51 1   
    50   45   52 1   
    51   46   47 1   
    52   46   48 1   
    53   53   54 1   
    54   53   57 1   
    55   54   55 1   
    56   54   58 1   
    57   54   59 1   
    58   55   56 2   
    59   55   60 1   
    60   60   61 1   
    61   60   68 1   
    62   61   62 1   
    63   61   64 1   
    64   61   69 1   
    65   62   63 2   
    66   62   74 1   
    67   64   65 1   
    68   64   70 1   
    69   64   71 1   
    70   65   66 1   
    71   65   67 2   
    72   66   72 1   
    73   66   73 1   
    74   74   75 1   
    75   74   78 1   
    76   75   76 1   
    77   75   79 1   
    78   75   80 1   
    79   76   77 2   
    80   76   81 1   
    81   81   82 1   
    82   81   93 1   
    83   82   83 1   
    84   82   85 1   
    85   82   94 1   
    86   83   84 2   
    87   83  102 1   
    88   85   86 1   
    89   85   95 1   
    90   85   96 1   
    91   86   87 ar  
    92   86   88 ar  
    93   87   89 ar  
    94   87   97 1   
    95   88   90 ar  
    96   88   98 1   
    97   89   91 ar  
    98   89   99 1   
    99   90   91 ar  
   100   90  100 1   
   101   91   92 1   
   102   92  101 1   
   103  102  103 1   
   104  102  110 1   
   105  103  104 1   
   106  103  106 1   
   107  103  111 1   
   108  104  105 2   
   109  104  121 1   
   110  106  107 1   
   111  106  108 1   
   112  106  112 1   
   113  107  109 1   
   114  107  113 1   
   115  107  114 1   
   116  108  115 1   
   117  108  116 1   
   118  108  117 1   
   119  109  118 1   
   120  109  119 1   
   121  109  120 1   
   122  121  122 1   
   123  121  127 1   
   124  122  123 1   
   125  122  125 1   
   126  122  128 1   
   127  123  124 2   
   128  123  132 1   
   129  125  126 1   
   130  125  129 1   
   131  125  130 1   
   132  126  131 1   
   133  132  133 1   
   134  132  137 1   
   135  133  134 1   
   136  133  136 1   
   137  133  138 1   
   138  134  135 2   
   139  134  142 1   
   140  136  139 1   
   141  136  140 1   
   142  136  141 1   
   143  142  143 1   
   144  142  147 1   
   145  143  144 1   
   146  143  146 1   
   147  143  148 1   
   148  144  145 2   
   149  144  152 1   
   150  146  149 1   
   151  146  150 1   
   152  146  151 1   
   153  152  153 1   
   154  152  161 1   
   155  153  154 1   
   156  153  156 1   
   157  153  162 1   
   158  154  155 2   
   159  154  167 1   
   160  156  157 1   
   161  156  163 1   
   162  156  164 1   
   163  157  158 1   
   164  157  165 1   
   165  157  166 1   
   166  158  159 1   
   167  158  160 1   
   168  167  168 1   
   169  167  172 1   
   170  168  169 1   
   171  168  170 1   
   172  168  171 1   
   173  174  176 1   
   174  174  178 1   
   175  175  177 1   
   176  175  179 1   
   177  180  181 1   
   178  180  182 1   
   179  183  184 1   
   180  183  185 1   
   181  186  187 1   
   182  186  188 1   
   183  189  190 1   
   184  189  191 1   
@<TRIPOS>SUBSTRUCTURE
     1 MOL         1 TEMP              0 ****  ****    0 ROOT
