@<TRIPOS>MOLECULE
MOL
  195   189     1     0     0
SMALL
resp


@<TRIPOS>ATOM
      1 C1          1.8740    2.7420    0.1170 c3        1 MOL     -0.093146
      2 C2          0.6730    3.0280   -0.8060 c         1 MOL      0.594221
      3 O1         -0.0500    2.0870   -1.1750 o         1 MOL     -0.514397
      4 H1          1.5180    2.5750    1.1340 hc        1 MOL     -0.028795
      5 H2          2.3990    1.8530   -0.2340 hc        1 MOL     -0.028795
      6 H3          2.5530    3.5950    0.1060 hc        1 MOL     -0.028795
      7 N1          0.5230    4.3020   -1.2290 n         1 MOL     -0.571926
      8 C3         -0.8510    4.9410   -1.4880 c3        1 MOL      0.150465
      9 C4         -1.8680    4.8500   -0.3340 c         1 MOL      0.506825
     10 O2         -2.1890    3.7330    0.0980 o         1 MOL     -0.471772
     11 C5         -1.3860    4.2040   -2.7160 c3        1 MOL     -0.209097
     12 C6         -2.3590    5.0230   -3.5840 c         1 MOL      0.607414
     13 O3         -2.6000    4.5560   -4.7200 o         1 MOL     -0.621842
     14 O4         -2.9080    6.0460   -3.1210 o         1 MOL     -0.621842
     15 H4          1.2400    4.9460   -0.9380 hn        1 MOL      0.295213
     16 H5         -0.5450    5.9690   -1.6700 h1        1 MOL      0.020319
     17 H6         -1.9180    3.3360   -2.3420 hc        1 MOL      0.086544
     18 H7         -0.5290    4.0060   -3.3630 hc        1 MOL      0.086544
     19 N2         -2.4130    6.0230    0.0800 n         1 MOL     -0.538905
     20 C7         -3.3400    6.2900    1.1950 c3        1 MOL      0.232427
     21 C8         -4.5210    7.1160    0.6810 c         1 MOL      0.480561
     22 O5         -4.3040    8.1570    0.1240 o         1 MOL     -0.566040
     23 C9         -2.5700    7.0210    2.3640 c3        1 MOL      0.054095
     24 C10        -1.2050    6.3480    2.8540 c3        1 MOL     -0.041290
     25 C11        -3.4460    7.1810    3.5990 c3        1 MOL     -0.100960
     26 C12        -1.3080    4.9730    3.5700 c3        1 MOL      0.156070
     27 H8         -2.1670    6.8480   -0.4480 hn        1 MOL      0.271235
     28 H9         -3.5740    5.2950    1.5610 h1        1 MOL      0.061910
     29 H10        -2.3770    8.0280    2.0290 hc        1 MOL     -0.010305
     30 H11        -0.7530    7.0530    3.5520 hc        1 MOL     -0.028175
     31 H12        -0.5170    6.1930    2.0120 hc        1 MOL     -0.028175
     32 H13        -4.3580    7.7450    3.4180 hc        1 MOL      0.021938
     33 H14        -3.8950    6.2850    4.0360 hc        1 MOL      0.021938
     34 H15        -2.9230    7.7120    4.3870 hc        1 MOL      0.021938
     35 H16        -2.0100    4.3060    3.0490 hc        1 MOL     -0.039162
     36 H17        -0.3910    4.4380    3.8280 hc        1 MOL     -0.039162
     37 H18        -1.6850    5.2520    4.5510 hc        1 MOL     -0.039162
     38 N3         -5.8010    6.7590    0.7850 n         1 MOL     -0.345301
     39 C13        -6.2990    5.5320    1.3970 c3        1 MOL     -0.049191
     40 C14        -5.8200    4.2050    0.7390 c         1 MOL      0.460465
     41 O6         -5.6200    3.1770    1.4200 o         1 MOL     -0.529789
     42 C15        -7.8570    5.4320    1.5960 c3        1 MOL     -0.121255
     43 C16        -8.4070    6.7880    1.9770 c         1 MOL      0.698579
     44 O7         -7.9870    7.3740    2.9820 o         1 MOL     -0.657126
     45 O8         -9.3120    7.2360    1.2670 o         1 MOL     -0.657126
     46 H19        -6.4500    7.4860    0.5020 hn        1 MOL      0.292581
     47 H20        -5.8300    5.5260    2.3770 h1        1 MOL      0.026850
     48 H21        -8.2210    4.6190    2.2180 hc        1 MOL      0.048898
     49 H22        -8.1480    5.2240    0.5670 hc        1 MOL      0.048898
     50 N4         -5.5510    4.3230   -0.5960 n         1 MOL     -0.254979
     51 C17        -5.0080    3.2930   -1.4840 c3        1 MOL     -0.266594
     52 C18        -6.0830    2.2640   -1.7220 c         1 MOL      0.524941
     53 O9         -7.1590    2.3200   -1.1320 o         1 MOL     -0.546798
     54 H23        -5.7630    5.2360   -0.9810 hn        1 MOL      0.230443
     55 H24        -4.1220    2.8840   -1.0050 h1        1 MOL      0.183844
     56 H25        -4.7210    3.6720   -2.4610 h1        1 MOL      0.183844
     57 N5         -5.7320    1.1660   -2.4070 n         1 MOL     -0.426636
     58 C19        -6.5850    0.0030   -2.8930 c3        1 MOL     -0.044417
     59 C20        -7.3730   -0.7190   -1.8440 c         1 MOL      0.472001
     60 O10        -8.2860   -1.4330   -2.1860 o         1 MOL     -0.571105
     61 C21        -5.5380   -0.9590   -3.5690 c3        1 MOL     -0.187316
     62 C22        -4.3670   -1.4160   -2.6840 c         1 MOL      0.693077
     63 O11        -3.2280   -1.0310   -2.9710 o         1 MOL     -0.620449
     64 O12        -4.6460   -2.1090   -1.7110 o         1 MOL     -0.620449
     65 H26        -4.8070    1.2370   -2.8120 hn        1 MOL      0.273425
     66 H27        -7.2830    0.4030   -3.6320 h1        1 MOL      0.106149
     67 H28        -5.0920   -0.4200   -4.3980 hc        1 MOL      0.044664
     68 H29        -5.9990   -1.8600   -4.0050 hc        1 MOL      0.044664
     69 N6         -7.0410   -0.6550   -0.5560 n         1 MOL     -0.062602
     70 C23        -7.8210   -1.2610    0.5320 c3        1 MOL     -0.348114
     71 C24        -7.6730   -2.8340    0.6040 c         1 MOL      0.574065
     72 O13        -8.2360   -3.4640    1.5250 o         1 MOL     -0.606972
     73 H30        -6.1890   -0.2350   -0.2380 hn        1 MOL      0.241156
     74 H31        -8.8490   -0.9410    0.4410 h1        1 MOL      0.141718
     75 H32        -7.3970   -0.7910    1.4270 h1        1 MOL      0.141718
     76 N7         -6.8550   -3.3550   -0.2770 n         1 MOL     -0.100855
     77 C25        -6.4750   -4.7630   -0.5510 c3        1 MOL     -0.046648
     78 C26        -5.9820   -5.5270    0.6920 c         1 MOL      0.531596
     79 O14        -6.1450   -6.7070    0.8240 o         1 MOL     -0.542521
     80 C27        -7.4540   -5.4860   -1.5200 c3        1 MOL      0.155207
     81 C28        -7.8250   -4.7150   -2.7570 c3        1 MOL     -0.206230
     82 C29        -8.3530   -5.5710   -3.8820 c         1 MOL      0.655383
     83 N8         -9.4980   -5.2720   -4.4330 n         1 MOL     -0.763295
     84 O15        -7.7920   -6.5650   -4.2990 o         1 MOL     -0.589067
     85 H33        -6.3530   -2.7870   -0.9510 hn        1 MOL     -0.041503
     86 H34        -5.5700   -4.6620   -1.1530 h1        1 MOL      0.114816
     87 H35        -8.3750   -5.8540   -1.0710 hc        1 MOL     -0.022915
     88 H36        -6.8910   -6.3690   -1.8050 hc        1 MOL     -0.022915
     89 H37        -6.9770   -4.1510   -3.1380 hc        1 MOL      0.076510
     90 H38        -8.5370   -3.9270   -2.4990 hc        1 MOL      0.076510
     91 H39        -9.9640   -4.4010   -4.2200 hn        1 MOL      0.337913
     92 H40        -9.8480   -5.9090   -5.1260 hn        1 MOL      0.337913
     93 N9         -5.2680   -4.8000    1.5370 n         1 MOL     -0.416198
     94 C30        -4.5350   -5.3070    2.7330 c3        1 MOL     -0.053220
     95 C31        -3.0710   -4.7740    2.8440 c         1 MOL      0.547260
     96 O16        -2.4060   -5.2850    3.7780 o         1 MOL     -0.560237
     97 C32        -5.2970   -4.9940    3.9760 c3        1 MOL      0.206711
     98 C33        -5.6740   -3.4680    4.3390 c3        1 MOL     -0.276977
     99 C34        -6.6640   -5.7270    3.9900 c3        1 MOL     -0.276977
    100 H41        -5.0300   -3.8470    1.2910 hn        1 MOL      0.281755
    101 H42        -4.4740   -6.3960    2.6570 h1        1 MOL      0.113223
    102 H43        -4.5960   -5.2700    4.7640 hc        1 MOL     -0.029616
    103 H44        -6.2090   -3.0600    3.4800 hc        1 MOL      0.066738
    104 H45        -6.2410   -3.2580    5.2480 hc        1 MOL      0.066738
    105 H46        -4.7440   -2.9260    4.4680 hc        1 MOL      0.066738
    106 H47        -6.5390   -6.7280    3.5800 hc        1 MOL      0.066738
    107 H48        -7.0700   -5.8760    4.9900 hc        1 MOL      0.066738
    108 H49        -7.3410   -5.0760    3.4380 hc        1 MOL      0.066738
    109 N10        -2.5650   -3.8370    2.0510 n         1 MOL     -0.493065
    110 C35        -1.2450   -3.1180    2.3460 c3        1 MOL      0.336176
    111 C36        -0.4260   -2.8410    1.0840 c         1 MOL      0.451919
    112 O17        -1.0400   -2.7410    0.0400 o         1 MOL     -0.468703
    113 C37        -1.6090   -1.7960    3.0620 c3        1 MOL     -0.298594
    114 C38        -0.3650   -1.1890    3.5950 c         1 MOL      0.626644
    115 N11        -0.0630    0.0020    3.1600 n         1 MOL     -0.735689
    116 O18         0.4230   -1.7690    4.2930 o         1 MOL     -0.571347
    117 H50        -3.1600   -3.4140    1.3440 hn        1 MOL      0.244212
    118 H51        -0.6830   -3.7330    3.0490 h1        1 MOL     -0.001419
    119 H52        -2.1910   -1.9150    3.9810 hc        1 MOL      0.102191
    120 H53        -2.2410   -1.1730    2.4320 hc        1 MOL      0.102191
    121 H54        -0.7660    0.5550    2.6870 hn        1 MOL      0.351168
    122 H55         0.8220    0.4100    3.3970 hn        1 MOL      0.351168
    123 N12         0.9230   -2.7900    1.1350 n         1 MOL     -0.531675
    124 C39         1.8020   -2.5000   -0.0200 c3        1 MOL      0.117081
    125 C40         3.2630   -2.9160    0.2460 c         1 MOL      0.496344
    126 O19         3.8360   -2.4560    1.2280 o         1 MOL     -0.576683
    127 C41         1.7720   -0.9970   -0.1540 c3        1 MOL     -0.484576
    128 C42         2.7490   -0.4760   -1.1320 ca        1 MOL      0.066348
    129 C43         3.9610    0.1190   -0.6780 ca        1 MOL     -0.038377
    130 C44         2.5510   -0.5390   -2.5180 ca        1 MOL     -0.038377
    131 C45         4.9310    0.6320   -1.5930 ca        1 MOL     -0.232766
    132 C46         3.4910   -0.0860   -3.4210 ca        1 MOL     -0.232766
    133 C47         4.6690    0.5210   -2.9670 ca        1 MOL      0.323556
    134 O20         5.4460    1.0330   -3.9050 oh        1 MOL     -0.446082
    135 H56         1.3160   -2.8230    2.0730 hn        1 MOL      0.337854
    136 H57         1.4000   -2.9060   -0.9480 h1        1 MOL      0.111772
    137 H58         1.9800   -0.4960    0.7930 hc        1 MOL      0.211908
    138 H59         0.7910   -0.6230   -0.4610 hc        1 MOL      0.211908
    139 H60         4.1660    0.2130    0.3760 ha        1 MOL      0.123704
    140 H61         1.6330   -0.9110   -2.9330 ha        1 MOL      0.123704
    141 H62         5.8050    1.1000   -1.1630 ha        1 MOL      0.112020
    142 H63         3.1680   -0.2160   -4.4430 ha        1 MOL      0.112020
    143 H64         6.0070    1.7310   -3.5460 ho        1 MOL      0.285886
    144 N13         3.8990   -3.6840   -0.5730 n         1 MOL     -0.475140
    145 C48         5.3190   -3.9980   -0.5990 c3        1 MOL      0.519152
    146 C49         6.0580   -3.2570   -1.7710 c         1 MOL      0.171732
    147 O21         5.6840   -3.3870   -2.8630 o         1 MOL     -0.470840
    148 C50         5.5900   -5.4890   -0.7000 c3        1 MOL      0.066890
    149 C51         4.9970   -6.3570    0.3990 c3        1 MOL     -0.098271
    150 C52         5.5700   -7.7870    0.4070 c         1 MOL      0.630174
    151 O22         5.2400   -8.5630   -0.5460 o         1 MOL     -0.622478
    152 O23         6.4390   -8.1970    1.2140 o         1 MOL     -0.622478
    153 H65         3.3670   -4.1230   -1.3060 hn        1 MOL      0.256020
    154 H66         5.7200   -3.6500    0.3600 h1        1 MOL     -0.109122
    155 H67         6.6640   -5.6760   -0.7160 hc        1 MOL      0.001636
    156 H68         5.1420   -5.8660   -1.6210 hc        1 MOL      0.001636
    157 H69         3.9010   -6.3850    0.3740 hc        1 MOL     -0.006638
    158 H70         5.2010   -5.9430    1.3830 hc        1 MOL     -0.006638
    159 N14         6.9550   -2.3370   -1.5070 n         1 MOL     -0.451459
    160 C53         7.3190   -1.8790   -0.1400 c3        1 MOL      0.657679
    161 C54         8.0280   -2.9150    0.7370 c         1 MOL      0.124184
    162 O24         8.7430   -3.8680    0.2240 o         1 MOL     -0.470888
    163 C55         8.0610   -0.5380   -0.1720 c3        1 MOL     -1.268496
    164 C56         9.5400   -0.6070   -0.3980 c3        1 MOL      0.144566
    165 C57        10.1730    0.7740   -0.3720 c         1 MOL      0.947010
    166 O25        10.4690    1.2790    0.7340 o         1 MOL     -0.776147
    167 O26        10.2920    1.4450   -1.4170 o         1 MOL     -0.776147
    168 H71         7.5810   -2.0120   -2.2320 hn        1 MOL      0.388816
    169 H72         6.4260   -1.6800    0.4470 h1        1 MOL      0.038122
    170 H73         7.8530   -0.1620    0.8250 hc        1 MOL      0.244379
    171 H74         7.7220    0.1080   -0.9810 hc        1 MOL      0.244379
    172 H75         9.7810   -1.1720   -1.3000 hc        1 MOL      0.035258
    173 H76        10.0520   -1.1300    0.4120 hc        1 MOL      0.035258
    174 N15         7.8090   -2.7620    2.0800 n         1 MOL     -0.017405
    175 C58         8.2710   -3.5820    3.2020 c3        1 MOL     -0.303365
    176 H77         7.6920   -3.3390    4.0920 h1        1 MOL      0.119948
    177 H78         8.1390   -4.6370    2.9600 h1        1 MOL      0.119948
    178 H79         9.3260   -3.3810    3.3890 h1        1 MOL      0.119948
    179 H80         7.1070   -2.1210    2.4160 hn        1 MOL      0.198192
    180 Ca1        11.5560    3.3920   -0.0600 Ca        1 MOL      1.491340
    181 O27        13.0580    3.0520   -2.3130 oh        1 MOL     -0.834140
    182 H81        13.0700    2.4130   -3.0300 ho        1 MOL      0.359057
    183 H82        13.9150    3.4940   -2.3760 ho        1 MOL      0.359057
    184 O28        11.9230    2.2290    2.7060 oh        1 MOL     -0.834140
    185 H83        11.8730    2.1340    3.6610 ho        1 MOL      0.359057
    186 H84        11.2720    1.6040    2.3670 ho        1 MOL      0.359057
    187 O29        13.0230    4.8750    1.5340 oh        1 MOL     -0.834140
    188 H85        13.9720    4.7760    1.4750 ho        1 MOL      0.359057
    189 H86        12.8750    5.2270    2.4110 ho        1 MOL      0.359057
    190 O30        13.5690    1.4510    0.1210 oh        1 MOL     -0.834140
    191 H87        14.4590    1.5110    0.4730 ho        1 MOL      0.359057
    192 H88        13.6470    0.8250   -0.6010 ho        1 MOL      0.359057
    193 O31        11.4640    5.8670   -1.1960 oh        1 MOL     -0.834140
    194 H89        10.6470    6.3680   -1.1050 ho        1 MOL      0.359057
    195 H90        12.1020    6.5070   -1.5110 ho        1 MOL      0.359057
@<TRIPOS>BOND
     1    1    2 1   
     2    1    4 1   
     3    1    5 1   
     4    1    6 1   
     5    2    3 2   
     6    2    7 1   
     7    7    8 1   
     8    7   15 1   
     9    8    9 1   
    10    8   11 1   
    11    8   16 1   
    12    9   10 2   
    13    9   19 1   
    14   11   12 1   
    15   11   17 1   
    16   11   18 1   
    17   12   13 1   
    18   12   14 1   
    19   19   20 1   
    20   19   27 1   
    21   20   21 1   
    22   20   23 1   
    23   20   28 1   
    24   21   22 2   
    25   21   38 1   
    26   23   24 1   
    27   23   25 1   
    28   23   29 1   
    29   24   26 1   
    30   24   30 1   
    31   24   31 1   
    32   25   32 1   
    33   25   33 1   
    34   25   34 1   
    35   26   35 1   
    36   26   36 1   
    37   26   37 1   
    38   38   39 1   
    39   38   46 1   
    40   39   40 1   
    41   39   42 1   
    42   39   47 1   
    43   40   41 2   
    44   40   50 1   
    45   42   43 1   
    46   42   48 1   
    47   42   49 1   
    48   43   44 1   
    49   43   45 1   
    50   50   51 1   
    51   50   54 1   
    52   51   52 1   
    53   51   55 1   
    54   51   56 1   
    55   52   53 2   
    56   52   57 1   
    57   57   58 1   
    58   57   65 1   
    59   58   59 1   
    60   58   61 1   
    61   58   66 1   
    62   59   60 2   
    63   59   69 1   
    64   61   62 1   
    65   61   67 1   
    66   61   68 1   
    67   62   63 1   
    68   62   64 1   
    69   69   70 1   
    70   69   73 1   
    71   70   71 1   
    72   70   74 1   
    73   70   75 1   
    74   71   72 2   
    75   71   76 1   
    76   76   77 1   
    77   76   85 1   
    78   77   78 1   
    79   77   80 1   
    80   77   86 1   
    81   78   79 2   
    82   78   93 1   
    83   80   81 1   
    84   80   87 1   
    85   80   88 1   
    86   81   82 1   
    87   81   89 1   
    88   81   90 1   
    89   82   83 1   
    90   82   84 2   
    91   83   91 1   
    92   83   92 1   
    93   93   94 1   
    94   93  100 1   
    95   94   95 1   
    96   94   97 1   
    97   94  101 1   
    98   95   96 2   
    99   95  109 1   
   100   97   98 1   
   101   97   99 1   
   102   97  102 1   
   103   98  103 1   
   104   98  104 1   
   105   98  105 1   
   106   99  106 1   
   107   99  107 1   
   108   99  108 1   
   109  109  110 1   
   110  109  117 1   
   111  110  111 1   
   112  110  113 1   
   113  110  118 1   
   114  111  112 2   
   115  111  123 1   
   116  113  114 1   
   117  113  119 1   
   118  113  120 1   
   119  114  115 1   
   120  114  116 2   
   121  115  121 1   
   122  115  122 1   
   123  123  124 1   
   124  123  135 1   
   125  124  125 1   
   126  124  127 1   
   127  124  136 1   
   128  125  126 2   
   129  125  144 1   
   130  127  128 1   
   131  127  137 1   
   132  127  138 1   
   133  128  129 ar  
   134  128  130 ar  
   135  129  131 ar  
   136  129  139 1   
   137  130  132 ar  
   138  130  140 1   
   139  131  133 ar  
   140  131  141 1   
   141  132  133 ar  
   142  132  142 1   
   143  133  134 1   
   144  134  143 1   
   145  144  145 1   
   146  144  153 1   
   147  145  146 1   
   148  145  148 1   
   149  145  154 1   
   150  146  147 2   
   151  146  159 1   
   152  148  149 1   
   153  148  155 1   
   154  148  156 1   
   155  149  150 1   
   156  149  157 1   
   157  149  158 1   
   158  150  151 1   
   159  150  152 1   
   160  159  160 1   
   161  159  168 1   
   162  160  161 1   
   163  160  163 1   
   164  160  169 1   
   165  161  162 2   
   166  161  174 1   
   167  163  164 1   
   168  163  170 1   
   169  163  171 1   
   170  164  165 1   
   171  164  172 1   
   172  164  173 1   
   173  165  166 1   
   174  165  167 1   
   175  174  175 1   
   176  174  179 1   
   177  175  176 1   
   178  175  177 1   
   179  175  178 1   
   180  181  182 1   
   181  181  183 1   
   182  184  185 1   
   183  184  186 1   
   184  187  188 1   
   185  187  189 1   
   186  190  191 1   
   187  190  192 1   
   188  193  194 1   
   189  193  195 1   
@<TRIPOS>SUBSTRUCTURE
     1 MOL         1 TEMP              0 ****  ****    0 ROOT
