@<TRIPOS>MOLECULE
MOL
  179   176     1     0     0
SMALL
resp


@<TRIPOS>ATOM
      1 C1          3.2360    0.5600    6.3220 c3        1 MOL     -0.327377
      2 C2          3.1990    0.9130    4.8280 c         1 MOL      0.669866
      3 O1          3.9660    0.4500    3.9890 o         1 MOL     -0.557555
      4 H1          3.1960   -0.5230    6.4410 hc        1 MOL      0.093011
      5 H2          4.1580    0.9400    6.7630 hc        1 MOL      0.093011
      6 H3          2.3810    1.0110    6.8240 hc        1 MOL      0.093011
      7 N1          2.1230    1.6180    4.4220 n         1 MOL     -0.607804
      8 C3          1.6360    1.7580    3.0710 c3        1 MOL      0.096610
      9 C4          2.0340    3.1200    2.4420 c         1 MOL      0.620316
     10 O2          1.6190    4.1850    2.9670 o         1 MOL     -0.523874
     11 C5          0.0570    1.6130    3.0280 c3        1 MOL     -0.153909
     12 C6         -0.5200    1.5500    1.6710 c         1 MOL      0.366653
     13 O3         -1.7900    1.6180    1.4520 o         1 MOL     -0.665234
     14 O4          0.2090    1.3990    0.6720 o         1 MOL     -0.665234
     15 H4          1.5380    1.7650    5.2350 hn        1 MOL      0.323954
     16 H5          2.0880    0.9440    2.4990 h1        1 MOL      0.007346
     17 H6         -0.3930    2.3510    3.6960 hc        1 MOL      0.080331
     18 H7         -0.2130    0.5950    3.3170 hc        1 MOL      0.080331
     19 N2          2.9320    3.2020    1.4300 n         1 MOL     -0.396340
     20 C7          3.3880    4.3740    0.6780 c3        1 MOL     -0.022926
     21 C8          2.2720    5.1380   -0.0150 c         1 MOL      0.325602
     22 O5          2.1060    6.3610    0.1150 o         1 MOL     -0.489920
     23 C9          4.5360    4.0030   -0.2800 c3        1 MOL     -0.051674
     24 C10         5.1620    5.1830   -1.1130 c3        1 MOL     -0.170918
     25 C11         6.2480    4.5750   -2.0880 c3        1 MOL      0.035330
     26 C12         5.6250    3.6600   -3.1790 c3        1 MOL      0.079388
     27 N3          6.7270    3.1450   -3.9500 n4        1 MOL     -0.437441
     28 H8          3.3340    2.3490    1.0960 hn        1 MOL      0.270089
     29 H9          3.8300    5.1460    1.3040 h1        1 MOL      0.117798
     30 H10         4.2170    3.2280   -0.9710 hc        1 MOL      0.066001
     31 H11         5.3640    3.6140    0.3010 hc        1 MOL      0.066001
     32 H12         5.6540    5.8760   -0.4340 hc        1 MOL      0.095945
     33 H13         4.5070    5.7880   -1.7480 hc        1 MOL      0.095945
     34 H14         6.9560    4.0100   -1.4810 hc        1 MOL      0.026627
     35 H15         6.7980    5.4100   -2.5060 hc        1 MOL      0.026627
     36 H16         4.8990    4.3240   -3.6540 hx        1 MOL      0.040315
     37 H17         5.1470    2.8670   -2.6110 hx        1 MOL      0.040315
     38 H18         7.3660    2.6130   -3.3900 hn        1 MOL      0.340914
     39 H19         6.4180    2.5040   -4.6650 hn        1 MOL      0.340914
     40 H20         7.2090    3.9070   -4.3940 hn        1 MOL      0.340914
     41 N4          1.4960    4.4340   -0.8510 n         1 MOL     -0.225987
     42 C13         0.3740    4.9330   -1.6120 c3        1 MOL     -0.034066
     43 C14        -0.9600    5.2100   -0.8010 c         1 MOL      0.340335
     44 O6         -1.8890    5.9790   -1.2660 o         1 MOL     -0.551859
     45 C15         0.0900    4.0930   -2.8330 c3        1 MOL     -0.234827
     46 C16        -0.4540    2.7160   -2.4820 c         1 MOL      0.656170
     47 O7         -1.6410    2.5460   -2.0140 o         1 MOL     -0.718743
     48 O8          0.3070    1.6840   -2.4350 o         1 MOL     -0.718743
     49 H21         1.6290    3.4360   -0.8460 hn        1 MOL      0.259917
     50 H22         0.7120    5.9180   -1.9480 h1        1 MOL      0.118811
     51 H23         1.0670    3.9800   -3.2920 hc        1 MOL      0.079577
     52 H24        -0.5580    4.6830   -3.4860 hc        1 MOL      0.079577
     53 N5         -1.0240    4.6130    0.3790 n         1 MOL      0.102126
     54 C17        -2.0050    4.9080    1.4600 c3        1 MOL     -0.255876
     55 C18        -3.3970    4.6430    0.9390 c         1 MOL      0.553466
     56 O9         -4.3100    5.0940    1.6310 o         1 MOL     -0.551880
     57 H25        -0.3480    3.8840    0.5810 hn        1 MOL      0.092484
     58 H26        -1.8970    5.9190    1.8520 h1        1 MOL      0.135253
     59 H27        -1.7950    4.2690    2.3080 h1        1 MOL      0.135253
     60 N6         -3.6420    3.9110   -0.1490 n         1 MOL     -0.256187
     61 C19        -5.0130    3.6420   -0.6360 c3        1 MOL     -0.040643
     62 C20        -5.2350    2.2020   -1.0050 c         1 MOL      0.750107
     63 O10        -4.2000    1.4950   -1.2270 o         1 MOL     -0.665498
     64 C21        -5.3410    4.5940   -1.8190 c3        1 MOL     -0.295167
     65 C22        -5.4680    6.0350   -1.2550 c         1 MOL      0.682558
     66 N7         -4.4200    6.8260   -1.2420 n         1 MOL     -0.813790
     67 O11        -6.5430    6.4860   -0.8540 o         1 MOL     -0.601389
     68 H28        -2.8720    3.4980   -0.6390 hn        1 MOL      0.281021
     69 H29        -5.6300    3.7360    0.2610 h1        1 MOL      0.058324
     70 H30        -6.2990    4.3430   -2.2880 hc        1 MOL      0.084860
     71 H31        -4.5280    4.5610   -2.5320 hc        1 MOL      0.084860
     72 H32        -3.4930    6.4450   -1.3750 hn        1 MOL      0.378339
     73 H33        -4.5620    7.6720   -0.7160 hn        1 MOL      0.378339
     74 N8         -6.4650    1.7750   -1.1390 n         1 MOL     -0.514486
     75 C23        -6.7600    0.4260   -1.5450 c3        1 MOL      0.013282
     76 C24        -6.2820   -0.6060   -0.5260 c         1 MOL      0.534939
     77 O12        -6.4180   -0.4210    0.7000 o         1 MOL     -0.467713
     78 H34        -7.2580    2.3870   -1.0700 hn        1 MOL      0.344118
     79 H35        -6.2460    0.2480   -2.4960 h1        1 MOL      0.061278
     80 H36        -7.8190    0.3220   -1.7530 h1        1 MOL      0.061278
     81 N9         -5.6710   -1.7660   -0.9850 n         1 MOL     -0.689146
     82 C25        -5.1140   -2.7410   -0.0430 c3        1 MOL      0.441624
     83 C26        -3.8980   -2.1650    0.6660 c         1 MOL      0.288453
     84 O13        -3.4480   -1.0780    0.4770 o         1 MOL     -0.360735
     85 C27        -4.6930   -4.0360   -0.7580 c3        1 MOL     -0.322704
     86 C28        -5.9330   -4.8310   -1.1970 ca        1 MOL      0.086351
     87 C29        -6.4070   -4.8600   -2.5440 ca        1 MOL     -0.156195
     88 C30        -6.5550   -5.8540   -0.2980 ca        1 MOL     -0.156195
     89 C31        -7.4700   -5.6800   -2.9550 ca        1 MOL     -0.299763
     90 C32        -7.6210   -6.6530   -0.7280 ca        1 MOL     -0.299763
     91 C33        -8.0850   -6.5770   -2.0780 ca        1 MOL      0.397593
     92 O14        -9.1080   -7.3080   -2.4190 oh        1 MOL     -0.464620
     93 H37        -5.4920   -1.8860   -1.9680 hn        1 MOL      0.329786
     94 H38        -5.8050   -2.9640    0.7610 h1        1 MOL      0.028700
     95 H39        -4.0160   -4.6430   -0.1480 hc        1 MOL      0.076501
     96 H40        -4.1480   -3.7550   -1.6640 hc        1 MOL      0.076501
     97 H41        -5.9870   -4.1200   -3.2140 ha        1 MOL      0.128285
     98 H42        -6.2000   -6.0340    0.7020 ha        1 MOL      0.128285
     99 H43        -7.9610   -5.5910   -3.9180 ha        1 MOL      0.163814
    100 H44        -8.0760   -7.3430   -0.0290 ha        1 MOL      0.163814
    101 H45        -9.3460   -7.8630   -1.6710 ho        1 MOL      0.368892
    102 N10        -3.4250   -2.9290    1.7370 n         1 MOL     -0.576371
    103 C34        -2.4600   -2.4820    2.7040 c3        1 MOL      0.430650
    104 C35        -1.0150   -2.1470    2.2280 c         1 MOL      0.138010
    105 O15        -0.8430   -1.3380    1.2830 o         1 MOL     -0.479974
    106 C36        -3.1090   -1.3260    3.4710 c3        1 MOL      0.154356
    107 C37        -2.3240   -1.0880    4.8180 c3        1 MOL     -0.273096
    108 C38        -4.5730   -1.6150    3.9050 c3        1 MOL     -0.149756
    109 C39        -2.2940   -2.3360    5.7770 c3        1 MOL     -0.414343
    110 H46        -3.7830   -3.8760    1.7700 hn        1 MOL      0.290965
    111 H47        -2.3970   -3.3290    3.3900 h1        1 MOL     -0.028655
    112 H48        -3.0610   -0.4290    2.8530 hc        1 MOL      0.044713
    113 H49        -2.8590   -0.3170    5.3770 hc        1 MOL      0.125312
    114 H50        -1.3040   -0.7550    4.6190 hc        1 MOL      0.125312
    115 H51        -4.9290   -0.9060    4.6530 hc        1 MOL      0.045860
    116 H52        -5.1960   -1.4520    3.0230 hc        1 MOL      0.045860
    117 H53        -4.6960   -2.6480    4.2070 hc        1 MOL      0.045860
    118 H54        -1.7190   -2.0030    6.6400 hc        1 MOL      0.115490
    119 H55        -3.3180   -2.5720    6.0520 hc        1 MOL      0.115490
    120 H56        -1.5900   -3.0430    5.3230 hc        1 MOL      0.115490
    121 N11         0.0330   -2.7030    2.8860 n         1 MOL     -0.409333
    122 C40         1.4450   -2.1880    2.6340 c3        1 MOL     -0.011678
    123 C41         2.0980   -2.4090    1.2340 c         1 MOL      0.317118
    124 O16         3.3150   -2.0250    1.0380 o         1 MOL     -0.507164
    125 C42         2.4230   -2.6780    3.7120 c3        1 MOL      0.052655
    126 O17         1.9140   -2.7210    5.0320 oh        1 MOL     -0.579489
    127 H57        -0.1080   -3.4230    3.5860 hn        1 MOL      0.306824
    128 H58         1.4110   -1.1010    2.7100 h1        1 MOL      0.321734
    129 H59         3.3700   -2.1360    3.7530 h1        1 MOL      0.094181
    130 H60         2.7150   -3.6700    3.3920 h1        1 MOL      0.094181
    131 H61         2.0370   -3.5800    5.4540 ho        1 MOL      0.389579
    132 N12         1.4300   -2.9940    0.3000 n         1 MOL     -0.263108
    133 C43         1.9030   -3.1610   -1.0750 c3        1 MOL      0.029479
    134 C44         1.7370   -1.8310   -1.8910 c         1 MOL      0.598566
    135 O18         0.6940   -1.0800   -1.7890 o         1 MOL     -0.579779
    136 C45         1.2920   -4.4260   -1.6750 c3        1 MOL     -0.347053
    137 H62         0.4550   -3.2130    0.4270 hn        1 MOL      0.261548
    138 H63         2.9930   -3.2790   -1.0830 h1        1 MOL      0.156461
    139 H64         0.2040   -4.3220   -1.6940 hc        1 MOL      0.101400
    140 H65         1.7050   -4.5890   -2.6680 hc        1 MOL      0.101400
    141 H66         1.4710   -5.2690   -1.0130 hc        1 MOL      0.101400
    142 N13         2.7340   -1.2940   -2.5690 n         1 MOL     -0.609826
    143 C46         4.1720   -1.4910   -2.3200 c3        1 MOL      0.282031
    144 C47         4.6870   -2.8860   -3.0000 c         1 MOL      0.667526
    145 O19         4.2200   -3.2850   -4.0570 o         1 MOL     -0.589618
    146 C48         4.9160   -0.3690   -2.9610 c3        1 MOL     -0.406201
    147 H67         2.4340   -0.5240   -3.1660 hn        1 MOL      0.348926
    148 H68         4.3310   -1.4850   -1.2430 h1        1 MOL      0.106731
    149 H69         4.7540    0.6070   -2.4990 hc        1 MOL      0.100489
    150 H70         5.9650   -0.6510   -2.9310 hc        1 MOL      0.100489
    151 H71         4.7000   -0.3180   -4.0300 hc        1 MOL      0.100489
    152 N14         5.5940   -3.5700   -2.3430 n         1 MOL     -0.728279
    153 C49         6.1620   -3.4440   -1.0420 c3        1 MOL     -0.194649
    154 C50         6.4180   -4.8790   -0.4390 c         1 MOL      0.585772
    155 O20         6.3940   -5.0310    0.7890 o         1 MOL     -0.518446
    156 C51         7.4580   -2.6920   -1.2490 c3        1 MOL      0.285276
    157 C52         7.8250   -1.9270   -0.0070 c3        1 MOL     -0.365496
    158 C53         9.0260   -0.9510   -0.2060 c         1 MOL      0.730212
    159 O21         9.9210   -1.3250   -0.9590 o         1 MOL     -0.714277
    160 O22         9.0100    0.2180    0.2740 o         1 MOL     -0.714277
    161 H72         6.1010   -4.1830   -2.9580 hn        1 MOL      0.362188
    162 H73         5.5760   -2.9530   -0.2650 h1        1 MOL      0.140934
    163 H74         7.4690   -2.0020   -2.0980 hc        1 MOL     -0.026790
    164 H75         8.2600   -3.3410   -1.6020 hc        1 MOL     -0.026790
    165 H76         8.1090   -2.6010    0.8020 hc        1 MOL      0.068737
    166 H77         7.0290   -1.3160    0.4200 hc        1 MOL      0.068737
    167 N15         6.6120   -5.8950   -1.3180 n         1 MOL     -0.365987
    168 C54         6.8350   -7.2870   -0.8310 c3        1 MOL     -0.094366
    169 H78         6.1960   -7.9720   -1.3860 h1        1 MOL      0.077797
    170 H79         7.8790   -7.5620   -0.9820 h1        1 MOL      0.077797
    171 H80         6.5950   -7.3440    0.2300 h1        1 MOL      0.077797
    172 H81         6.7160   -5.7040   -2.3060 hn        1 MOL      0.277155
    173 Ca1        -1.4240    0.1000   -0.9090 Ca        1 MOL      1.788052
    174 O23        -1.7120   -2.5710   -1.4540 oh        1 MOL     -0.859397
    175 H82        -1.5770   -3.2800   -0.8180 ho        1 MOL      0.428679
    176 H83        -1.7910   -3.0160   -2.2970 ho        1 MOL      0.428679
    177 O24        -2.7300    0.0690   -3.2310 oh        1 MOL     -0.859397
    178 H84        -3.4180   -0.4590   -3.6460 ho        1 MOL      0.428679
    179 H85        -2.9580    0.9740   -3.4390 ho        1 MOL      0.428679
@<TRIPOS>BOND
     1    1    2 1   
     2    1    4 1   
     3    1    5 1   
     4    1    6 1   
     5    2    3 2   
     6    2    7 1   
     7    7    8 1   
     8    7   15 1   
     9    8    9 1   
    10    8   11 1   
    11    8   16 1   
    12    9   10 2   
    13    9   19 1   
    14   11   12 1   
    15   11   17 1   
    16   11   18 1   
    17   12   13 1   
    18   12   14 1   
    19   19   20 1   
    20   19   28 1   
    21   20   21 1   
    22   20   23 1   
    23   20   29 1   
    24   21   22 2   
    25   21   41 1   
    26   23   24 1   
    27   23   30 1   
    28   23   31 1   
    29   24   25 1   
    30   24   32 1   
    31   24   33 1   
    32   25   26 1   
    33   25   34 1   
    34   25   35 1   
    35   26   27 1   
    36   26   36 1   
    37   26   37 1   
    38   27   38 1   
    39   27   39 1   
    40   27   40 1   
    41   41   42 1   
    42   41   49 1   
    43   42   43 1   
    44   42   45 1   
    45   42   50 1   
    46   43   44 2   
    47   43   53 1   
    48   45   46 1   
    49   45   51 1   
    50   45   52 1   
    51   46   47 1   
    52   46   48 1   
    53   53   54 1   
    54   53   57 1   
    55   54   55 1   
    56   54   58 1   
    57   54   59 1   
    58   55   56 2   
    59   55   60 1   
    60   60   61 1   
    61   60   68 1   
    62   61   62 1   
    63   61   64 1   
    64   61   69 1   
    65   62   63 2   
    66   62   74 1   
    67   64   65 1   
    68   64   70 1   
    69   64   71 1   
    70   65   66 1   
    71   65   67 2   
    72   66   72 1   
    73   66   73 1   
    74   74   75 1   
    75   74   78 1   
    76   75   76 1   
    77   75   79 1   
    78   75   80 1   
    79   76   77 2   
    80   76   81 1   
    81   81   82 1   
    82   81   93 1   
    83   82   83 1   
    84   82   85 1   
    85   82   94 1   
    86   83   84 2   
    87   83  102 1   
    88   85   86 1   
    89   85   95 1   
    90   85   96 1   
    91   86   87 ar  
    92   86   88 ar  
    93   87   89 ar  
    94   87   97 1   
    95   88   90 ar  
    96   88   98 1   
    97   89   91 ar  
    98   89   99 1   
    99   90   91 ar  
   100   90  100 1   
   101   91   92 1   
   102   92  101 1   
   103  102  103 1   
   104  102  110 1   
   105  103  104 1   
   106  103  106 1   
   107  103  111 1   
   108  104  105 2   
   109  104  121 1   
   110  106  107 1   
   111  106  108 1   
   112  106  112 1   
   113  107  109 1   
   114  107  113 1   
   115  107  114 1   
   116  108  115 1   
   117  108  116 1   
   118  108  117 1   
   119  109  118 1   
   120  109  119 1   
   121  109  120 1   
   122  121  122 1   
   123  121  127 1   
   124  122  123 1   
   125  122  125 1   
   126  122  128 1   
   127  123  124 2   
   128  123  132 1   
   129  125  126 1   
   130  125  129 1   
   131  125  130 1   
   132  126  131 1   
   133  132  133 1   
   134  132  137 1   
   135  133  134 1   
   136  133  136 1   
   137  133  138 1   
   138  134  135 2   
   139  134  142 1   
   140  136  139 1   
   141  136  140 1   
   142  136  141 1   
   143  142  143 1   
   144  142  147 1   
   145  143  144 1   
   146  143  146 1   
   147  143  148 1   
   148  144  145 2   
   149  144  152 1   
   150  146  149 1   
   151  146  150 1   
   152  146  151 1   
   153  152  153 1   
   154  152  161 1   
   155  153  154 1   
   156  153  156 1   
   157  153  162 1   
   158  154  155 2   
   159  154  167 1   
   160  156  157 1   
   161  156  163 1   
   162  156  164 1   
   163  157  158 1   
   164  157  165 1   
   165  157  166 1   
   166  158  159 1   
   167  158  160 1   
   168  167  168 1   
   169  167  172 1   
   170  168  169 1   
   171  168  170 1   
   172  168  171 1   
   173  174  175 1   
   174  174  176 1   
   175  177  178 1   
   176  177  179 1   
@<TRIPOS>SUBSTRUCTURE
     1 MOL         1 TEMP              0 ****  ****    0 ROOT
