@<TRIPOS>MOLECULE
MOL
  181   177     1     0     0
SMALL
resp


@<TRIPOS>ATOM
      1 C1          4.2320   -2.0310    2.7920 c3        1 MOL     -0.345210
      2 C2          5.3700   -1.1810    2.3350 c         1 MOL      0.666190
      3 O1          5.1690   -0.2050    1.5910 o         1 MOL     -0.580847
      4 H1          3.3000   -1.6370    2.3860 hc        1 MOL      0.094513
      5 H2          4.3780   -3.0530    2.4420 hc        1 MOL      0.094513
      6 H3          4.1860   -2.0220    3.8800 hc        1 MOL      0.094513
      7 N1          6.5930   -1.5350    2.7580 n         1 MOL     -0.535183
      8 C3          7.8200   -0.8470    2.1860 c3        1 MOL      0.088771
      9 C4          8.1600   -1.4350    0.8210 c         1 MOL      0.609531
     10 O2          8.3140   -2.6340    0.7370 o         1 MOL     -0.550024
     11 C5          8.9980   -1.1000    3.1720 c3        1 MOL     -0.170946
     12 C6         10.3020   -0.3410    2.9430 c         1 MOL      0.734308
     13 O3         10.3070    0.5610    2.0920 o         1 MOL     -0.743544
     14 O4         11.2340   -0.7470    3.6450 o         1 MOL     -0.743544
     15 H4          6.6260   -2.3920    3.2900 hn        1 MOL      0.273987
     16 H5          7.5550    0.2060    2.2300 h1        1 MOL      0.061929
     17 H6          9.3100   -2.1420    3.2150 hc        1 MOL      0.026573
     18 H7          8.5960   -0.8220    4.1440 hc        1 MOL      0.026573
     19 N2          8.2790   -0.5480   -0.1920 n         1 MOL     -0.489132
     20 C7          8.4340   -1.0330   -1.5940 c3        1 MOL      0.304406
     21 C8          7.0330   -1.6590   -2.0890 c         1 MOL      0.437407
     22 O5          7.0070   -2.3470   -3.0790 o         1 MOL     -0.551080
     23 C9          8.9850    0.0620   -2.5560 c3        1 MOL     -0.323203
     24 H8          8.1280    0.4330   -0.0040 hn        1 MOL      0.273247
     25 H9          9.1310   -1.8790   -1.5880 h1        1 MOL      0.030866
     26 H10         9.1610   -0.3080   -3.5690 hc        1 MOL      0.085716
     27 H11         8.2410    0.8590   -2.6160 hc        1 MOL      0.085716
     28 H12         9.9580    0.3810   -2.1900 hc        1 MOL      0.085716
     29 N3          5.9610   -1.3140   -1.3890 n         1 MOL     -0.483329
     30 C10         4.6910   -1.9900   -1.5980 c3        1 MOL      0.357621
     31 C11         4.0720   -1.5900   -2.9500 c         1 MOL      0.364887
     32 O6          3.1440   -2.2640   -3.4490 o         1 MOL     -0.504918
     33 C12         4.6730   -3.4850   -1.3120 c3        1 MOL     -0.020454
     34 C13         3.3330   -4.0430   -0.8670 c         1 MOL      0.647431
     35 O7          2.4660   -3.3130   -0.2940 o         1 MOL     -0.720983
     36 O8          3.1160   -5.2320   -1.2220 o         1 MOL     -0.720983
     37 H13         6.1220   -0.9260   -0.4700 hn        1 MOL      0.168342
     38 H14         4.0800   -1.5430   -0.8140 h1        1 MOL      0.008883
     39 H15         5.4200   -3.7050   -0.5440 hc        1 MOL      0.011193
     40 H16         5.0510   -4.0050   -2.1920 hc        1 MOL      0.011193
     41 N4          4.5680   -0.5240   -3.5330 n         1 MOL     -0.215080
     42 C14         4.1200    0.1120   -4.8210 c3        1 MOL     -0.092988
     43 C15         3.1120    1.1900   -4.6390 c         1 MOL      0.723583
     44 O9          3.0150    2.0440   -5.4980 o         1 MOL     -0.615399
     45 H17         5.2760   -0.0370   -3.0020 hn        1 MOL      0.210605
     46 H18         3.6400   -0.6320   -5.4650 h1        1 MOL      0.071913
     47 H19         4.8760    0.6260   -5.4070 h1        1 MOL      0.071913
     48 N5          2.3640    1.3420   -3.5260 n         1 MOL     -0.672452
     49 C16         1.2500    2.3420   -3.5320 c3        1 MOL      0.237782
     50 C17         1.6540    3.6780   -2.8690 c         1 MOL      0.605641
     51 O10         2.6100    3.7760   -2.1380 o         1 MOL     -0.510760
     52 C18         0.0900    1.5720   -2.9750 c3        1 MOL     -0.280892
     53 C19        -1.2710    2.2660   -3.1940 c         1 MOL      0.618511
     54 N6         -2.3980    1.5980   -2.9100 n         1 MOL     -0.695696
     55 O11        -1.3170    3.2490   -3.8110 o         1 MOL     -0.526196
     56 H20         2.4280    0.6960   -2.7520 hn        1 MOL      0.288731
     57 H21         0.9400    2.5470   -4.5630 h1        1 MOL      0.045429
     58 H22         0.2410    1.4700   -1.8930 hc        1 MOL      0.153626
     59 H23         0.1410    0.6160   -3.4900 hc        1 MOL      0.153626
     60 H24        -2.2920    0.6010   -2.7330 hn        1 MOL      0.317095
     61 H25        -3.3010    2.0150   -3.0710 hn        1 MOL      0.317095
     62 N7          0.8610    4.7610   -3.1350 n         1 MOL     -0.626313
     63 C20         1.0700    6.0860   -2.4560 c3        1 MOL      0.240911
     64 C21         0.1090    6.3790   -1.2820 c         1 MOL      0.623195
     65 O12        -1.0490    6.0320   -1.3130 o         1 MOL     -0.524630
     66 H26        -0.0140    4.6800   -3.6410 hn        1 MOL      0.313020
     67 H27         1.0220    6.9830   -3.0630 h1        1 MOL     -0.013748
     68 H28         2.0480    6.1290   -1.9760 h1        1 MOL     -0.013748
     69 N8          0.5790    7.0780   -0.2170 n         1 MOL     -0.593479
     70 C22        -0.2870    7.6110    0.8050 c3        1 MOL     -0.224373
     71 C23        -1.0290    6.5800    1.5990 c         1 MOL      0.460331
     72 O13        -2.0020    6.9800    2.2860 o         1 MOL     -0.569250
     73 C24         0.4630    8.5830    1.7400 c3        1 MOL      0.477216
     74 C25         1.2790    7.8750    2.9100 c3        1 MOL     -0.367934
     75 O14         1.3250    9.5110    1.0870 oh        1 MOL     -0.591719
     76 H29         1.5780    7.2020   -0.2510 hn        1 MOL      0.310352
     77 H30        -1.0090    8.2640    0.3260 h1        1 MOL      0.158604
     78 H31        -0.3630    9.1960    2.1140 h1        1 MOL      0.019959
     79 H32         1.9560    8.8860    0.7280 ho        1 MOL      0.349989
     80 H33         1.7930    6.9600    2.6190 hc        1 MOL      0.084040
     81 H34         1.8870    8.6610    3.3500 hc        1 MOL      0.084040
     82 H35         0.6110    7.6630    3.7340 hc        1 MOL      0.084040
     83 N9         -0.5120    5.3570    1.5650 n         1 MOL      0.047431
     84 C26        -1.0250    4.1080    2.0970 c3        1 MOL     -0.315628
     85 C27        -0.7810    2.8960    1.1320 c         1 MOL      0.633199
     86 O15         0.1070    2.9280    0.3220 o         1 MOL     -0.496130
     87 C28        -0.5130    3.8380    3.5450 c3        1 MOL      0.317734
     88 C29         1.0320    3.6650    3.5040 c3        1 MOL     -0.163840
     89 C30        -1.0260    4.7770    4.6390 c3        1 MOL     -0.285012
     90 C31         1.5740    3.0760    4.8870 c3        1 MOL     -0.101445
     91 H36         0.1510    5.1950    0.8230 hn        1 MOL      0.100104
     92 H37        -2.1010    4.2490    2.0920 h1        1 MOL      0.101522
     93 H38        -0.9420    2.8900    3.8570 hc        1 MOL     -0.027582
     94 H39         1.4260    4.6400    3.2050 hc        1 MOL      0.082219
     95 H40         1.3050    2.8780    2.8050 hc        1 MOL      0.082219
     96 H41        -2.0700    4.5010    4.7300 hc        1 MOL      0.063013
     97 H42        -0.4440    4.6020    5.5430 hc        1 MOL      0.063013
     98 H43        -0.8590    5.8230    4.3860 hc        1 MOL      0.063013
     99 H44         2.6590    3.0370    4.7810 hc        1 MOL      0.025326
    100 H45         1.4530    3.8290    5.6680 hc        1 MOL      0.025326
    101 H46         1.0530    2.1790    5.2100 hc        1 MOL      0.025326
    102 N10        -1.6300    1.8550    1.2830 n         1 MOL     -0.759326
    103 C32        -1.5740    0.6020    0.5950 c3        1 MOL      0.520829
    104 C33        -3.0900    0.0970    0.3470 c         1 MOL      0.259729
    105 O16        -3.5590   -0.9270    0.7980 o         1 MOL     -0.158875
    106 C34        -0.7190   -0.3760    1.4450 c3        1 MOL     -0.537576
    107 C35        -0.5580   -1.7840    0.7970 c         1 MOL      0.777353
    108 O17        -0.4170   -1.9060   -0.4200 o         1 MOL     -0.738660
    109 O18        -0.4290   -2.8330    1.4770 o         1 MOL     -0.738660
    110 H47        -2.4480    1.9890    1.8610 hn        1 MOL      0.352416
    111 H48        -1.1790    0.6340   -0.4110 h1        1 MOL     -0.108625
    112 H49        -1.2240   -0.6390    2.3770 hc        1 MOL      0.170976
    113 H50         0.2480    0.0910    1.6330 hc        1 MOL      0.170976
    114 N11        -3.9070    1.0530   -0.1880 n         1 MOL     -0.481646
    115 C36        -5.2860    0.7080   -0.5710 c3        1 MOL      0.161697
    116 C37        -6.1280    0.0380    0.5220 c         1 MOL      0.335574
    117 O19        -6.0150    0.4780    1.6590 o         1 MOL     -0.506888
    118 C38        -5.9080    2.0120   -1.0680 c3        1 MOL     -0.312108
    119 C39        -7.2080    1.7580   -1.8670 ca        1 MOL      0.138289
    120 C40        -7.2020    1.4410   -3.2810 ca        1 MOL     -0.186423
    121 C41        -8.4710    1.7190   -1.2140 ca        1 MOL     -0.186423
    122 C42        -8.3490    1.0080   -3.9770 ca        1 MOL     -0.100080
    123 C43        -9.6140    1.4010   -1.9340 ca        1 MOL     -0.100080
    124 C44        -9.5600    1.0470   -3.3290 ca        1 MOL     -0.135298
    125 H51        -3.5230    1.8690   -0.6430 hn        1 MOL      0.310883
    126 H52        -5.1330    0.0380   -1.4240 h1        1 MOL      0.082209
    127 H53        -5.2360    2.4650   -1.7940 hc        1 MOL      0.127685
    128 H54        -6.0510    2.7250   -0.2570 hc        1 MOL      0.127685
    129 H55        -6.2340    1.3650   -3.7510 ha        1 MOL      0.125194
    130 H56        -8.6320    1.9630   -0.1740 ha        1 MOL      0.125194
    131 H57        -8.3360    0.6660   -5.0070 ha        1 MOL      0.115272
    132 H58       -10.5730    1.2520   -1.4410 ha        1 MOL      0.115272
    133 H59       -10.4330    0.5690   -3.7470 ha        1 MOL      0.110604
    134 N12        -6.8760   -0.9860    0.2070 n         1 MOL      0.049250
    135 C45        -7.5720   -1.7790    1.2430 c3        1 MOL     -0.059165
    136 C46        -6.6580   -2.6310    2.0820 c         1 MOL      0.399796
    137 O20        -7.1960   -3.3120    3.0340 o         1 MOL     -0.550573
    138 C47        -8.5250   -2.7060    0.3980 c3        1 MOL     -0.213772
    139 C48        -7.9250   -2.8630   -0.9850 c3        1 MOL      0.026248
    140 C49        -7.2390   -1.4300   -1.1420 c3        1 MOL     -0.022549
    141 H60        -8.1660   -1.2630    1.9990 h1        1 MOL      0.095960
    142 H61        -8.5440   -3.6890    0.8680 hc        1 MOL      0.081172
    143 H62        -9.4620   -2.1960    0.1900 hc        1 MOL      0.081172
    144 H63        -7.2670   -3.7240   -0.9520 hc        1 MOL      0.036356
    145 H64        -8.6530   -3.0110   -1.7820 hc        1 MOL      0.036356
    146 H65        -6.3600   -1.5800   -1.7660 h1        1 MOL      0.013707
    147 H66        -7.9290   -0.8090   -1.6980 h1        1 MOL      0.013707
    148 N13        -5.3450   -2.6310    1.8280 n         1 MOL      0.031203
    149 C50        -4.4650   -3.5790    2.4320 c3        1 MOL     -0.411342
    150 C51        -3.7500   -3.0880    3.6280 c         1 MOL      0.595755
    151 O21        -3.2050   -3.8140    4.4670 o         1 MOL     -0.559032
    152 C52        -3.6470   -4.3100    1.3720 c3        1 MOL      0.453913
    153 C53        -4.4680   -4.6890    0.1050 c3        1 MOL     -0.355646
    154 C54        -3.5330   -5.3980   -0.8850 c         1 MOL      0.682118
    155 O22        -4.0600   -6.2330   -1.5980 o         1 MOL     -0.699097
    156 O23        -2.3010   -5.0300   -1.0510 o         1 MOL     -0.699097
    157 H67        -4.9990   -1.8230    1.3350 hn        1 MOL     -0.122436
    158 H68        -5.1840   -4.3220    2.7710 h1        1 MOL      0.136860
    159 H69        -3.2150   -5.2090    1.8190 hc        1 MOL     -0.097400
    160 H70        -2.8850   -3.5760    1.1120 hc        1 MOL     -0.097400
    161 H71        -4.8200   -3.7740   -0.3670 hc        1 MOL      0.085910
    162 H72        -5.2700   -5.3750    0.3890 hc        1 MOL      0.085910
    163 N14        -3.8320   -1.7610    3.8360 n         1 MOL     -0.238867
    164 C55        -3.5500   -1.1020    5.1660 c3        1 MOL     -0.417936
    165 H73        -3.5270   -1.8600    5.9480 h1        1 MOL      0.145997
    166 H74        -2.5870   -0.5940    5.1240 h1        1 MOL      0.145997
    167 H75        -4.3340   -0.3770    5.3850 h1        1 MOL      0.145997
    168 H76        -4.2180   -1.1500    3.1390 hn        1 MOL      0.261416
    169 Ca1         0.2220   -4.6460   -0.2350 Ca        1 MOL      1.668397
    170 O24        -0.9370   -7.0340    0.8430 oh        1 MOL     -0.786236
    171 H77        -1.0300   -7.0500    1.7950 ho        1 MOL      0.381481
    172 H78        -0.3230   -7.7390    0.6480 ho        1 MOL      0.381481
    173 O25         0.9700   -6.8670   -1.4580 oh        1 MOL     -0.786236
    174 H79         1.8810   -6.5940   -1.4210 ho        1 MOL      0.381481
    175 H80         0.9560   -7.7210   -1.0260 ho        1 MOL      0.381481
    176 O26         0.5310   -3.6090   -2.7450 oh        1 MOL     -0.786236
    177 H81         1.1630   -2.9140   -2.8870 ho        1 MOL      0.381481
    178 H82         0.0650   -3.6920   -3.5730 ho        1 MOL      0.381481
    179 O27         1.3330   -5.2300    2.1140 oh        1 MOL     -0.786236
    180 H83         0.7900   -4.9370    2.8360 ho        1 MOL      0.381481
    181 H84         2.0980   -5.6240    2.5340 ho        1 MOL      0.381481
@<TRIPOS>BOND
     1    1    2 1   
     2    1    4 1   
     3    1    5 1   
     4    1    6 1   
     5    2    3 2   
     6    2    7 1   
     7    7    8 1   
     8    7   15 1   
     9    8    9 1   
    10    8   11 1   
    11    8   16 1   
    12    9   10 2   
    13    9   19 1   
    14   11   12 1   
    15   11   17 1   
    16   11   18 1   
    17   12   13 1   
    18   12   14 1   
    19   19   20 1   
    20   19   24 1   
    21   20   21 1   
    22   20   23 1   
    23   20   25 1   
    24   21   22 2   
    25   21   29 1   
    26   23   26 1   
    27   23   27 1   
    28   23   28 1   
    29   29   30 1   
    30   29   37 1   
    31   30   31 1   
    32   30   33 1   
    33   30   38 1   
    34   31   32 2   
    35   31   41 1   
    36   33   34 1   
    37   33   39 1   
    38   33   40 1   
    39   34   35 1   
    40   34   36 1   
    41   41   42 1   
    42   41   45 1   
    43   42   43 1   
    44   42   46 1   
    45   42   47 1   
    46   43   44 2   
    47   43   48 1   
    48   48   49 1   
    49   48   56 1   
    50   49   50 1   
    51   49   52 1   
    52   49   57 1   
    53   50   51 2   
    54   50   62 1   
    55   52   53 1   
    56   52   58 1   
    57   52   59 1   
    58   53   54 1   
    59   53   55 2   
    60   54   60 1   
    61   54   61 1   
    62   62   63 1   
    63   62   66 1   
    64   63   64 1   
    65   63   67 1   
    66   63   68 1   
    67   64   65 2   
    68   64   69 1   
    69   69   70 1   
    70   69   76 1   
    71   70   71 1   
    72   70   73 1   
    73   70   77 1   
    74   71   72 2   
    75   71   83 1   
    76   73   74 1   
    77   73   75 1   
    78   73   78 1   
    79   74   80 1   
    80   74   81 1   
    81   74   82 1   
    82   75   79 1   
    83   83   84 1   
    84   83   91 1   
    85   84   85 1   
    86   84   87 1   
    87   84   92 1   
    88   85   86 2   
    89   85  102 1   
    90   87   88 1   
    91   87   89 1   
    92   87   93 1   
    93   88   90 1   
    94   88   94 1   
    95   88   95 1   
    96   89   96 1   
    97   89   97 1   
    98   89   98 1   
    99   90   99 1   
   100   90  100 1   
   101   90  101 1   
   102  102  103 1   
   103  102  110 1   
   104  103  104 1   
   105  103  106 1   
   106  103  111 1   
   107  104  105 2   
   108  104  114 1   
   109  106  107 1   
   110  106  112 1   
   111  106  113 1   
   112  107  108 1   
   113  107  109 1   
   114  114  115 1   
   115  114  125 1   
   116  115  116 1   
   117  115  118 1   
   118  115  126 1   
   119  116  117 2   
   120  116  134 1   
   121  118  119 1   
   122  118  127 1   
   123  118  128 1   
   124  119  120 ar  
   125  119  121 ar  
   126  120  122 ar  
   127  120  129 1   
   128  121  123 ar  
   129  121  130 1   
   130  122  124 ar  
   131  122  131 1   
   132  123  124 ar  
   133  123  132 1   
   134  124  133 1   
   135  134  135 1   
   136  134  140 1   
   137  135  136 1   
   138  135  138 1   
   139  135  141 1   
   140  136  137 2   
   141  136  148 1   
   142  138  139 1   
   143  138  142 1   
   144  138  143 1   
   145  139  140 1   
   146  139  144 1   
   147  139  145 1   
   148  140  146 1   
   149  140  147 1   
   150  148  149 1   
   151  148  157 1   
   152  149  150 1   
   153  149  152 1   
   154  149  158 1   
   155  150  151 2   
   156  150  163 1   
   157  152  153 1   
   158  152  159 1   
   159  152  160 1   
   160  153  154 1   
   161  153  161 1   
   162  153  162 1   
   163  154  155 1   
   164  154  156 1   
   165  163  164 1   
   166  163  168 1   
   167  164  165 1   
   168  164  166 1   
   169  164  167 1   
   170  170  171 1   
   171  170  172 1   
   172  173  174 1   
   173  173  175 1   
   174  176  177 1   
   175  176  178 1   
   176  179  180 1   
   177  179  181 1   
@<TRIPOS>SUBSTRUCTURE
     1 MOL         1 TEMP              0 ****  ****    0 ROOT
