@<TRIPOS>MOLECULE
MOL
  175   173     1     0     0
SMALL
resp


@<TRIPOS>ATOM
      1 C1         -5.8640    8.1370    1.0210 c3        1 MOL     -0.391471
      2 C2         -6.8420    7.2110    0.3210 c         1 MOL      0.690309
      3 O1         -7.0280    7.3330   -0.8910 o         1 MOL     -0.595654
      4 H1         -5.7330    9.0420    0.4280 hc        1 MOL      0.091901
      5 H2         -6.2520    8.4020    2.0040 hc        1 MOL      0.091901
      6 H3         -4.9030    7.6350    1.1320 hc        1 MOL      0.091901
      7 N1         -7.6020    6.4340    1.0200 n         1 MOL     -0.478832
      8 C3         -8.6170    5.5450    0.4440 c3        1 MOL      0.142176
      9 C4         -7.9930    4.5180   -0.5810 c         1 MOL      0.564179
     10 O2         -8.5560    4.2510   -1.6530 o         1 MOL     -0.516278
     11 C5         -9.4800    4.7940    1.4390 c3        1 MOL     -0.111697
     12 C6        -10.7850    4.2570    0.9610 c         1 MOL      0.641323
     13 O3        -11.6960    5.1080    0.9170 o         1 MOL     -0.711339
     14 O4        -10.9650    3.0750    0.4770 o         1 MOL     -0.711339
     15 H4         -7.5250    6.4060    2.0250 hn        1 MOL      0.265610
     16 H5         -9.2820    6.1660   -0.1450 h1        1 MOL      0.056664
     17 H6         -9.7840    5.4050    2.2850 hc        1 MOL     -0.020185
     18 H7         -8.9290    3.9240    1.7990 hc        1 MOL     -0.020185
     19 N2         -6.8410    3.9620   -0.1910 n         1 MOL     -0.549405
     20 C7         -6.0010    3.0420   -0.9400 c3        1 MOL      0.189074
     21 C8         -4.9770    2.3010   -0.0750 c         1 MOL      0.687381
     22 O5         -4.3130    2.9590    0.7620 o         1 MOL     -0.559270
     23 C9         -5.2720    3.8930   -2.0230 c3        1 MOL     -0.356224
     24 H8         -6.4630    4.2590    0.7000 hn        1 MOL      0.244255
     25 H9         -6.6050    2.3830   -1.5670 h1        1 MOL      0.076149
     26 H10        -4.4580    3.3620   -2.5080 hc        1 MOL      0.108829
     27 H11        -6.0360    4.1880   -2.7490 hc        1 MOL      0.108829
     28 H12        -4.6560    4.6960   -1.6060 hc        1 MOL      0.108829
     29 N3         -4.8130    0.9460   -0.1750 n         1 MOL     -0.617741
     30 C10        -5.5320    0.0650   -1.1830 c3        1 MOL      0.014693
     31 C11        -5.6390   -1.4460   -0.6640 c         1 MOL      0.557881
     32 O6         -5.1450   -1.7930    0.3420 o         1 MOL     -0.496825
     33 C12        -4.6820    0.0690   -2.5150 c3        1 MOL     -0.203574
     34 C13        -3.1980   -0.2100   -2.3150 c         1 MOL      0.601134
     35 O7         -2.3820    0.6760   -2.0180 o         1 MOL     -0.650859
     36 O8         -2.8070   -1.3940   -2.2600 o         1 MOL     -0.650859
     37 H13        -4.0420    0.5640    0.3520 hn        1 MOL      0.314768
     38 H14        -6.5610    0.4080   -1.2940 h1        1 MOL      0.063346
     39 H15        -4.6940    1.0720   -2.9350 hc        1 MOL      0.045160
     40 H16        -5.1830   -0.6080   -3.2090 hc        1 MOL      0.045160
     41 N4         -6.4510   -2.2110   -1.3160 n         1 MOL     -0.327155
     42 C14        -7.0240   -3.4590   -0.8640 c3        1 MOL     -0.041132
     43 C15        -6.6970   -4.6710   -1.6930 c         1 MOL      0.549376
     44 O9         -7.5900   -5.2360   -2.3160 o         1 MOL     -0.589948
     45 H17        -6.8390   -1.8140   -2.1550 hn        1 MOL      0.275251
     46 H18        -8.1100   -3.3480   -0.7560 h1        1 MOL      0.082934
     47 H19        -6.7520   -3.6340    0.1770 h1        1 MOL      0.082934
     48 N5         -5.5300   -5.2420   -1.7570 n         1 MOL     -0.394652
     49 C16        -4.1990   -4.7830   -1.2440 c3        1 MOL      0.045173
     50 C17        -3.8590   -5.1750    0.1300 c         1 MOL      0.440684
     51 O10        -3.6810   -6.3640    0.3860 o         1 MOL     -0.551533
     52 C18        -3.0690   -5.1740   -2.3040 c3        1 MOL      0.229274
     53 C19        -1.7080   -4.6810   -1.8340 c         1 MOL      0.368751
     54 N6         -0.7050   -5.2360   -2.4810 n         1 MOL     -0.697995
     55 O11        -1.5210   -3.9620   -0.8260 o         1 MOL     -0.417256
     56 H20        -5.4720   -6.0340   -2.3720 hn        1 MOL      0.277942
     57 H21        -4.0940   -3.6890   -1.2260 h1        1 MOL     -0.127604
     58 H22        -3.2970   -4.6800   -3.2520 hc        1 MOL     -0.030899
     59 H23        -3.0520   -6.2210   -2.5900 hc        1 MOL     -0.030899
     60 H24        -0.7000   -5.8990   -3.2350 hn        1 MOL      0.351848
     61 H25         0.1750   -4.8540   -2.1660 hn        1 MOL      0.351848
     62 N7         -3.7540   -4.2520    1.1000 n         1 MOL     -0.071978
     63 C20        -3.5940   -4.5150    2.5040 c3        1 MOL     -0.354824
     64 C21        -2.1710   -4.6450    3.0380 c         1 MOL      0.621839
     65 O12        -2.0520   -5.0520    4.1780 o         1 MOL     -0.564923
     66 H26        -3.8470   -3.2770    0.8720 hn        1 MOL      0.157802
     67 H27        -4.1310   -5.4390    2.7320 h1        1 MOL      0.127154
     68 H28        -4.0150   -3.6840    3.0680 h1        1 MOL      0.127154
     69 N8         -1.2010   -4.2940    2.1710 n         1 MOL     -0.335393
     70 C22         0.2100   -4.4260    2.4450 c3        1 MOL     -0.029906
     71 C23         1.0080   -3.2210    1.9750 c         1 MOL      0.351776
     72 O13         0.5600   -2.3170    1.2700 o         1 MOL     -0.498334
     73 C24         0.7510   -5.6640    1.7530 c3        1 MOL      0.368497
     74 C25         0.1820   -6.9450    2.3020 c3        1 MOL     -0.575025
     75 O14         0.4290   -5.7470    0.3730 oh        1 MOL     -0.569988
     76 H29        -1.4990   -4.0400    1.2400 hn        1 MOL      0.326168
     77 H30         0.2140   -4.4350    3.5380 h1        1 MOL      0.050026
     78 H31         1.8300   -5.5980    1.8190 h1        1 MOL     -0.015356
     79 H32         1.2060   -5.6030   -0.1770 ho        1 MOL      0.391678
     80 H33         0.3810   -6.9840    3.3750 hc        1 MOL      0.141098
     81 H34        -0.9040   -7.0630    2.2860 hc        1 MOL      0.141098
     82 H35         0.7120   -7.7410    1.7660 hc        1 MOL      0.141098
     83 N9          2.2170   -3.0870    2.5580 n         1 MOL     -0.184278
     84 C26         3.1390   -2.0280    2.5690 c3        1 MOL      0.053769
     85 C27         4.1520   -2.2610    1.4420 c         1 MOL      0.293004
     86 O15         5.3240   -2.6020    1.6980 o         1 MOL     -0.556717
     87 C28         3.6460   -1.5490    3.9670 c3        1 MOL      0.386436
     88 C29         4.1850   -0.1230    3.8410 c3        1 MOL     -0.177230
     89 C30         2.5800   -1.6590    5.0230 c3        1 MOL     -0.533650
     90 C31         3.1740    1.0270    3.9050 c3        1 MOL      0.014145
     91 H36         2.4390   -3.8170    3.2210 hn        1 MOL      0.191197
     92 H37         2.5560   -1.1670    2.2680 h1        1 MOL      0.094050
     93 H38         4.4870   -2.1800    4.2510 hc        1 MOL     -0.050929
     94 H39         4.6170    0.0270    2.8550 hc        1 MOL      0.024959
     95 H40         4.9800   -0.0620    4.5760 hc        1 MOL      0.024959
     96 H41         1.6050   -1.2480    4.7410 hc        1 MOL      0.116906
     97 H42         2.5510   -2.7260    5.2340 hc        1 MOL      0.116906
     98 H43         2.8760   -1.1350    5.9350 hc        1 MOL      0.116906
     99 H44         2.3990    0.8890    3.1510 hc        1 MOL      0.001714
    100 H45         2.6560    1.1050    4.8590 hc        1 MOL      0.001714
    101 H46         3.5980    2.0170    3.7340 hc        1 MOL      0.001714
    102 N10         3.7110   -2.0540    0.2240 n         1 MOL     -0.048897
    103 C32         4.3730   -2.4180   -0.9900 c3        1 MOL      0.340380
    104 C33         5.3350   -1.2760   -1.4590 c         1 MOL      0.487490
    105 O16         5.2780   -0.7800   -2.5810 o         1 MOL     -0.528657
    106 C34         3.3620   -2.8620   -2.0560 c3        1 MOL     -0.473640
    107 C35         2.2540   -3.7350   -1.4770 c         1 MOL      0.832921
    108 O17         2.6080   -4.8140   -0.9750 o         1 MOL     -0.705837
    109 O18         1.0770   -3.3810   -1.6240 o         1 MOL     -0.705837
    110 H47         2.7520   -1.7910    0.0430 hn        1 MOL     -0.124509
    111 H48         5.1160   -3.2050   -0.8360 h1        1 MOL     -0.001819
    112 H49         3.8910   -3.2480   -2.9280 hc        1 MOL      0.112806
    113 H50         2.8250   -2.0040   -2.4620 hc        1 MOL      0.112806
    114 N11         6.1500   -0.7750   -0.5010 n         1 MOL     -0.599412
    115 C36         7.1480    0.2130   -0.7520 c3        1 MOL      0.419377
    116 C37         6.7810    1.6380   -0.2220 c         1 MOL      0.507353
    117 O19         6.3560    1.8040    0.9370 o         1 MOL     -0.570034
    118 C38         8.4870   -0.2060   -0.1290 c3        1 MOL     -0.095213
    119 C39         9.6580    0.6370   -0.6130 ca        1 MOL      0.037754
    120 C40         9.9200    1.9000   -0.1160 ca        1 MOL     -0.140130
    121 C41        10.4260    0.2560   -1.7180 ca        1 MOL     -0.140130
    122 C42        10.8280    2.7950   -0.6500 ca        1 MOL     -0.152586
    123 C43        11.3190    1.1210   -2.3920 ca        1 MOL     -0.152586
    124 C44        11.6200    2.3960   -1.7480 ca        1 MOL     -0.075799
    125 H51         5.9510   -1.1560    0.4190 hn        1 MOL      0.263957
    126 H52         7.2420    0.3190   -1.8320 h1        1 MOL     -0.062996
    127 H53         8.7610   -1.2520   -0.2460 hc        1 MOL      0.049981
    128 H54         8.3760   -0.0160    0.9400 hc        1 MOL      0.049981
    129 H55         9.4050    2.2260    0.7780 ha        1 MOL      0.108645
    130 H56        10.1690   -0.6990   -2.1270 ha        1 MOL      0.108645
    131 H57        11.0910    3.7920   -0.3330 ha        1 MOL      0.118926
    132 H58        11.8990    0.7980   -3.2340 ha        1 MOL      0.118926
    133 H59        12.3840    2.9880   -2.2310 ha        1 MOL      0.095440
    134 N12         6.8520    2.6940   -1.1070 n         1 MOL     -0.161466
    135 C45         6.7810    4.0750   -0.5860 c3        1 MOL     -0.095261
    136 C46         5.3930    4.6700   -0.2370 c         1 MOL      0.690955
    137 O20         5.1300    5.8830   -0.1270 o         1 MOL     -0.601906
    138 C47         7.3680    4.9440   -1.6880 c3        1 MOL     -0.076695
    139 C48         7.2790    4.1650   -2.9810 c3        1 MOL     -0.014235
    140 C49         7.4380    2.6810   -2.5020 c3        1 MOL      0.001776
    141 H60         7.3690    4.1840    0.3230 h1        1 MOL      0.074036
    142 H61         6.8820    5.9180   -1.7150 hc        1 MOL      0.032831
    143 H62         8.4560    5.0680   -1.5650 hc        1 MOL      0.032831
    144 H63         6.2960    4.2870   -3.4440 hc        1 MOL      0.029064
    145 H64         8.1230    4.3860   -3.6430 hc        1 MOL      0.029064
    146 H65         6.9490    2.1240   -3.3000 h1        1 MOL      0.052345
    147 H66         8.4720    2.3480   -2.4390 h1        1 MOL      0.052345
    148 N13         4.3720    3.8020   -0.0000 n         1 MOL     -0.441360
    149 C50         2.9960    4.2750    0.2460 c3        1 MOL      0.006497
    150 C51         2.7810    4.6450    1.7780 c         1 MOL      0.361747
    151 O21         1.5920    4.7720    2.1400 o         1 MOL     -0.473397
    152 C52         1.9820    3.2590   -0.3160 c3        1 MOL     -0.215175
    153 C53         2.0340    1.9350    0.5210 c3        1 MOL      0.155501
    154 C54         1.2190    0.8780   -0.0700 c         1 MOL      0.600017
    155 O22        -0.0430    0.8640    0.1050 o         1 MOL     -0.701790
    156 O23         1.7410   -0.1050   -0.6500 o         1 MOL     -0.701790
    157 H67         4.6590    2.8370   -0.0900 hn        1 MOL      0.188667
    158 H68         2.6890    5.1390   -0.3340 h1        1 MOL      0.127359
    159 H69         2.2900    3.0060   -1.3310 hc        1 MOL      0.093250
    160 H70         0.9900    3.6860   -0.1670 hc        1 MOL      0.093250
    161 H71         1.6650    2.1990    1.5110 hc        1 MOL      0.010033
    162 H72         3.0510    1.6000    0.7230 hc        1 MOL      0.010033
    163 N14         3.8630    4.7200    2.5570 n         1 MOL     -0.142442
    164 C55         3.7650    5.3800    3.8860 c3        1 MOL     -0.118229
    165 H73         3.7730    4.6220    4.6700 h1        1 MOL      0.066520
    166 H74         4.6120    6.0520    4.0220 h1        1 MOL      0.066520
    167 H75         2.8360    5.9490    3.9420 h1        1 MOL      0.066520
    168 H76         4.7780    4.7380    2.1120 hn        1 MOL      0.189027
    169 Ca1        -0.5660   -1.4770   -1.0510 Ca        1 MOL      1.702908
    170 O24        -2.4190   -1.7000    0.8800 oh        1 MOL     -0.823257
    171 H77        -3.3650   -1.6900    0.8210 ho        1 MOL      0.399492
    172 H78        -2.2060   -1.0220    1.5270 ho        1 MOL      0.399492
    173 O25        -0.1690   -1.4390   -3.8460 oh        1 MOL     -0.823257
    174 H79         0.4730   -1.1930   -4.5070 ho        1 MOL      0.399492
    175 H80        -0.7090   -2.1080   -4.2740 ho        1 MOL      0.399492
@<TRIPOS>BOND
     1    1    2 1   
     2    1    4 1   
     3    1    5 1   
     4    1    6 1   
     5    2    3 2   
     6    2    7 1   
     7    7    8 1   
     8    7   15 1   
     9    8    9 1   
    10    8   11 1   
    11    8   16 1   
    12    9   10 2   
    13    9   19 1   
    14   11   12 1   
    15   11   17 1   
    16   11   18 1   
    17   12   13 1   
    18   12   14 1   
    19   19   20 1   
    20   19   24 1   
    21   20   21 1   
    22   20   23 1   
    23   20   25 1   
    24   21   22 2   
    25   21   29 1   
    26   23   26 1   
    27   23   27 1   
    28   23   28 1   
    29   29   30 1   
    30   29   37 1   
    31   30   31 1   
    32   30   33 1   
    33   30   38 1   
    34   31   32 2   
    35   31   41 1   
    36   33   34 1   
    37   33   39 1   
    38   33   40 1   
    39   34   35 1   
    40   34   36 1   
    41   41   42 1   
    42   41   45 1   
    43   42   43 1   
    44   42   46 1   
    45   42   47 1   
    46   43   44 2   
    47   43   48 1   
    48   48   49 1   
    49   48   56 1   
    50   49   50 1   
    51   49   52 1   
    52   49   57 1   
    53   50   51 2   
    54   50   62 1   
    55   52   53 1   
    56   52   58 1   
    57   52   59 1   
    58   53   54 1   
    59   53   55 2   
    60   54   60 1   
    61   54   61 1   
    62   62   63 1   
    63   62   66 1   
    64   63   64 1   
    65   63   67 1   
    66   63   68 1   
    67   64   65 2   
    68   64   69 1   
    69   69   70 1   
    70   69   76 1   
    71   70   71 1   
    72   70   73 1   
    73   70   77 1   
    74   71   72 2   
    75   71   83 1   
    76   73   74 1   
    77   73   75 1   
    78   73   78 1   
    79   74   80 1   
    80   74   81 1   
    81   74   82 1   
    82   75   79 1   
    83   83   84 1   
    84   83   91 1   
    85   84   85 1   
    86   84   87 1   
    87   84   92 1   
    88   85   86 2   
    89   85  102 1   
    90   87   88 1   
    91   87   89 1   
    92   87   93 1   
    93   88   90 1   
    94   88   94 1   
    95   88   95 1   
    96   89   96 1   
    97   89   97 1   
    98   89   98 1   
    99   90   99 1   
   100   90  100 1   
   101   90  101 1   
   102  102  103 1   
   103  102  110 1   
   104  103  104 1   
   105  103  106 1   
   106  103  111 1   
   107  104  105 2   
   108  104  114 1   
   109  106  107 1   
   110  106  112 1   
   111  106  113 1   
   112  107  108 1   
   113  107  109 1   
   114  114  115 1   
   115  114  125 1   
   116  115  116 1   
   117  115  118 1   
   118  115  126 1   
   119  116  117 2   
   120  116  134 1   
   121  118  119 1   
   122  118  127 1   
   123  118  128 1   
   124  119  120 ar  
   125  119  121 ar  
   126  120  122 ar  
   127  120  129 1   
   128  121  123 ar  
   129  121  130 1   
   130  122  124 ar  
   131  122  131 1   
   132  123  124 ar  
   133  123  132 1   
   134  124  133 1   
   135  134  135 1   
   136  134  140 1   
   137  135  136 1   
   138  135  138 1   
   139  135  141 1   
   140  136  137 2   
   141  136  148 1   
   142  138  139 1   
   143  138  142 1   
   144  138  143 1   
   145  139  140 1   
   146  139  144 1   
   147  139  145 1   
   148  140  146 1   
   149  140  147 1   
   150  148  149 1   
   151  148  157 1   
   152  149  150 1   
   153  149  152 1   
   154  149  158 1   
   155  150  151 2   
   156  150  163 1   
   157  152  153 1   
   158  152  159 1   
   159  152  160 1   
   160  153  154 1   
   161  153  161 1   
   162  153  162 1   
   163  154  155 1   
   164  154  156 1   
   165  163  164 1   
   166  163  168 1   
   167  164  165 1   
   168  164  166 1   
   169  164  167 1   
   170  170  171 1   
   171  170  172 1   
   172  173  174 1   
   173  173  175 1   
@<TRIPOS>SUBSTRUCTURE
     1 MOL         1 TEMP              0 ****  ****    0 ROOT
