@<TRIPOS>MOLECULE
MOL
  195   189     1     0     0
SMALL
resp


@<TRIPOS>ATOM
      1 C1         -4.4190   -1.0720    2.8700 c3        1 MOL     -0.272821
      2 C2         -3.3860   -1.9680    2.1980 c         1 MOL      0.500585
      3 O1         -2.2660   -1.5180    2.0270 o         1 MOL     -0.477688
      4 H1         -5.2090   -0.8330    2.1580 hc        1 MOL      0.069808
      5 H2         -4.8480   -1.5900    3.7270 hc        1 MOL      0.069808
      6 H3         -3.9410   -0.1510    3.2040 hc        1 MOL      0.069808
      7 N1         -3.6760   -3.2050    1.7990 n         1 MOL     -0.366208
      8 C3         -2.8280   -4.0400    0.9650 c3        1 MOL     -0.006383
      9 C4         -1.3540   -4.1870    1.4260 c         1 MOL      0.634828
     10 O2         -0.4690   -4.0370    0.5870 o         1 MOL     -0.561508
     11 C5         -3.0520   -3.6270   -0.5090 c3        1 MOL     -0.087441
     12 C6         -4.5080   -3.7020   -0.9020 c         1 MOL      0.725946
     13 O3         -4.8610   -3.4910   -2.1620 o         1 MOL     -0.750145
     14 O4         -5.4490   -4.1870   -0.1990 o         1 MOL     -0.750145
     15 H4         -4.6670   -3.4080    1.7510 hn        1 MOL      0.170927
     16 H5         -3.1890   -5.0660    0.9740 h1        1 MOL      0.096939
     17 H6         -2.5440   -4.2270   -1.2680 hc        1 MOL      0.055273
     18 H7         -2.6170   -2.6330   -0.5870 hc        1 MOL      0.055273
     19 N2         -1.1080   -4.4950    2.6760 n         1 MOL     -0.665311
     20 C7          0.2980   -4.5060    3.1590 c3        1 MOL      0.374704
     21 C8          1.0120   -5.8240    2.6900 c         1 MOL      0.404218
     22 O5          0.5660   -6.9200    2.9820 o         1 MOL     -0.574184
     23 C9          0.3430   -4.3180    4.6790 c3        1 MOL     -0.073428
     24 C10        -0.4850   -5.3420    5.5620 c3        1 MOL      0.262252
     25 C11        -0.0190   -2.8300    5.0290 c3        1 MOL     -0.161138
     26 C12        -0.2130   -5.3380    7.1020 c3        1 MOL     -0.325999
     27 H8         -1.9010   -4.4420    3.3030 hn        1 MOL      0.291193
     28 H9          0.8630   -3.6590    2.7590 h1        1 MOL      0.063150
     29 H10         1.3940   -4.4980    4.9100 hc        1 MOL      0.026084
     30 H11        -0.2830   -6.3280    5.1390 hc        1 MOL     -0.055699
     31 H12        -1.5470   -5.2380    5.3060 hc        1 MOL     -0.055699
     32 H13        -0.0560   -2.6880    6.1090 hc        1 MOL      0.039714
     33 H14         0.6750   -2.1310    4.5630 hc        1 MOL      0.039714
     34 H15        -0.9640   -2.5770    4.5500 hc        1 MOL      0.039714
     35 H16        -0.9000   -5.9500    7.7000 hc        1 MOL      0.066583
     36 H17         0.8160   -5.6940    7.2100 hc        1 MOL      0.066583
     37 H18        -0.3860   -4.3680    7.5500 hc        1 MOL      0.066583
     38 N3          2.0900   -5.7350    1.9270 n         1 MOL     -0.258746
     39 C13         2.6690   -4.6330    1.2460 c3        1 MOL     -0.242063
     40 C14         3.2070   -5.1700   -0.1270 c         1 MOL      0.554744
     41 O6          4.0000   -6.0800   -0.1750 o         1 MOL     -0.508701
     42 C15         3.7790   -4.1410    2.0560 c3        1 MOL     -0.387990
     43 C16         4.7020   -3.2590    1.2120 c         1 MOL      0.820215
     44 O7          4.3240   -2.5070    0.2790 o         1 MOL     -0.711386
     45 O8          5.9260   -3.1700    1.4610 o         1 MOL     -0.711386
     46 H19         2.4840   -6.6270    1.6610 hn        1 MOL      0.276526
     47 H20         2.0140   -3.7710    1.1400 h1        1 MOL      0.173747
     48 H21         4.3220   -4.9970    2.4500 hc        1 MOL      0.091463
     49 H22         3.4870   -3.6640    2.9940 hc        1 MOL      0.091463
     50 N4          2.7060   -4.6970   -1.3280 n         1 MOL     -0.416529
     51 C17         3.1950   -5.2180   -2.5890 c3        1 MOL     -0.096136
     52 C18         4.4840   -4.6450   -3.0530 c         1 MOL      0.686719
     53 O9          4.8610   -5.0680   -4.1480 o         1 MOL     -0.633323
     54 H23         2.0340   -3.9540   -1.2100 hn        1 MOL      0.299912
     55 H24         2.4260   -5.1060   -3.3600 h1        1 MOL      0.083479
     56 H25         3.2490   -6.3030   -2.5060 h1        1 MOL      0.083479
     57 N5          5.0580   -3.6410   -2.4020 n         1 MOL     -0.643258
     58 C19         5.8300   -2.5960   -3.1160 c3        1 MOL      0.278741
     59 C20         7.0110   -2.0030   -2.3240 c         1 MOL      0.370009
     60 O10         7.9370   -1.5080   -2.9650 o         1 MOL     -0.606705
     61 C21         5.0170   -1.4460   -3.7570 c3        1 MOL     -0.378139
     62 C22         4.2170   -0.7190   -2.6880 c         1 MOL      0.769911
     63 O11         2.9980   -0.8640   -2.6480 o         1 MOL     -0.677557
     64 O12         4.7740    0.0960   -1.9020 o         1 MOL     -0.677557
     65 H26         4.6680   -3.3760   -1.5110 hn        1 MOL      0.361533
     66 H27         6.2830   -3.1000   -3.9810 h1        1 MOL      0.035394
     67 H28         4.3190   -1.9510   -4.4290 hc        1 MOL      0.086484
     68 H29         5.7450   -0.7610   -4.1900 hc        1 MOL      0.086484
     69 N6          6.8650   -1.8590   -0.9970 n         1 MOL     -0.194853
     70 C23         7.9480   -1.2380   -0.1010 c3        1 MOL     -0.023186
     71 C24         8.0870    0.2990   -0.0320 c         1 MOL      0.629071
     72 O13         8.8610    0.7710    0.7560 o         1 MOL     -0.628857
     73 H30         6.0460   -2.2770   -0.5800 hn        1 MOL      0.225958
     74 H31         8.9050   -1.6490   -0.4230 h1        1 MOL      0.051009
     75 H32         7.8250   -1.6100    0.9170 h1        1 MOL      0.051009
     76 N7          7.3920    0.9740   -0.9520 n         1 MOL     -0.327503
     77 C25         7.4470    2.3880   -1.3270 c3        1 MOL     -0.138351
     78 C26         7.0150    3.3910   -0.2490 c         1 MOL      0.449671
     79 O14         7.1320    4.5990   -0.4380 o         1 MOL     -0.510219
     80 C27         8.7600    2.6580   -2.0430 c3        1 MOL      0.289659
     81 C28         8.9860    1.6480   -3.2110 c3        1 MOL     -0.307144
     82 C29         8.0870    1.9720   -4.4130 c         1 MOL      0.643330
     83 N8          7.6820    1.0180   -5.2040 n         1 MOL     -0.822002
     84 O15         7.7230    3.1130   -4.7450 o         1 MOL     -0.590585
     85 H33         6.7650    0.4240   -1.5270 hn        1 MOL      0.239579
     86 H34         6.7440    2.5050   -2.1520 h1        1 MOL      0.154510
     87 H35         9.6570    2.6390   -1.4250 hc        1 MOL     -0.050033
     88 H36         8.7010    3.6560   -2.4600 hc        1 MOL     -0.050033
     89 H37         8.9130    0.6000   -2.9110 hc        1 MOL      0.069819
     90 H38         9.9980    1.8760   -3.5400 hc        1 MOL      0.069819
     91 H39         7.7510    0.1210   -4.7440 hn        1 MOL      0.379275
     92 H40         7.1450    1.3510   -5.9830 hn        1 MOL      0.379275
     93 N9          6.4140    2.9330    0.8600 n         1 MOL     -0.273592
     94 C30         6.0780    3.7950    1.9770 c3        1 MOL     -0.160596
     95 C31         4.5840    3.7440    2.4330 c         1 MOL      0.669523
     96 O16         4.1880    4.5970    3.2130 o         1 MOL     -0.606836
     97 C32         7.0510    3.5550    3.1910 c3        1 MOL      0.479751
     98 C33         6.8480    2.2590    3.9680 c3        1 MOL     -0.453049
     99 C34         8.5270    3.6290    2.9270 c3        1 MOL     -0.453049
    100 H41         6.2560    1.9470    0.9870 hn        1 MOL      0.237773
    101 H42         6.1690    4.8320    1.6520 h1        1 MOL      0.095399
    102 H43         6.8710    4.4100    3.8540 hc        1 MOL     -0.081322
    103 H44         7.2350    1.3820    3.4610 hc        1 MOL      0.097050
    104 H45         7.5160    2.4520    4.8090 hc        1 MOL      0.097050
    105 H46         5.8280    2.1790    4.3460 hc        1 MOL      0.097050
    106 H47         9.0450    3.8060    3.8790 hc        1 MOL      0.097050
    107 H48         8.8670    2.6590    2.5760 hc        1 MOL      0.097050
    108 H49         8.7160    4.4910    2.2780 hc        1 MOL      0.097050
    109 N10         3.7840    2.8690    1.8110 n         1 MOL     -0.587129
    110 C35         2.3290    2.6710    2.1250 c3        1 MOL      0.475562
    111 C36         1.3810    2.7880    0.9430 c         1 MOL      0.455248
    112 O17         1.9520    2.7790   -0.1310 o         1 MOL     -0.499525
    113 C37         2.2350    1.3090    2.8170 c3        1 MOL     -0.505029
    114 C38         0.8110    0.7630    3.0540 c         1 MOL      0.733521
    115 N11         0.4450   -0.3640    2.4120 n         1 MOL     -0.764191
    116 O18         0.0660    1.3170    3.8180 o         1 MOL     -0.600345
    117 H50         4.2680    2.2650    1.1650 hn        1 MOL      0.278354
    118 H51         2.0870    3.4210    2.8810 h1        1 MOL     -0.019654
    119 H52         2.7840    1.3220    3.7610 hc        1 MOL      0.142454
    120 H53         2.6380    0.5900    2.1090 hc        1 MOL      0.142454
    121 H54         0.9760   -0.7200    1.6370 hn        1 MOL      0.354746
    122 H55        -0.4990   -0.6770    2.5750 hn        1 MOL      0.354746
    123 N12         0.0820    2.8650    1.1260 n         1 MOL     -0.541628
    124 C39        -0.8560    3.0130   -0.0240 c3        1 MOL      0.090258
    125 C40        -2.1440    3.7300    0.3740 c         1 MOL      0.515857
    126 O19        -2.8310    3.4470    1.3680 o         1 MOL     -0.547381
    127 C41        -1.0940    1.5820   -0.6100 c3        1 MOL     -0.118370
    128 C42        -2.0410    1.4720   -1.7770 ca        1 MOL      0.043638
    129 C43        -3.0670    0.5420   -1.7170 ca        1 MOL     -0.093218
    130 C44        -1.9570    2.3910   -2.8890 ca        1 MOL     -0.093218
    131 C45        -4.0210    0.4750   -2.7480 ca        1 MOL     -0.389849
    132 C46        -2.8910    2.2430   -3.9030 ca        1 MOL     -0.389849
    133 C47        -3.9340    1.2920   -3.9010 ca        1 MOL      0.474429
    134 O20        -4.9870    1.2190   -4.7850 oh        1 MOL     -0.637324
    135 H56        -0.2380    2.9120    2.0800 hn        1 MOL      0.300107
    136 H57        -0.3310    3.5800   -0.7840 h1        1 MOL      0.051699
    137 H58        -1.5330    1.1000    0.2610 hc        1 MOL      0.102216
    138 H59        -0.2140    1.0080   -0.8960 hc        1 MOL      0.102216
    139 H60        -3.0980   -0.2280   -0.9500 ha        1 MOL      0.144115
    140 H61        -1.1950    3.1400   -3.0280 ha        1 MOL      0.144115
    141 H62        -4.6890   -0.3660   -2.7390 ha        1 MOL      0.181077
    142 H63        -2.9640    3.0110   -4.6670 ha        1 MOL      0.181077
    143 H64        -5.7510    0.7980   -4.3830 ho        1 MOL      0.469215
    144 N13        -2.5290    4.6180   -0.5450 n         1 MOL     -0.498103
    145 C48        -3.8250    5.3090   -0.3580 c3        1 MOL      0.493468
    146 C49        -4.8810    4.6550   -1.2350 c         1 MOL      0.395956
    147 O21        -4.8080    4.9550   -2.4380 o         1 MOL     -0.554642
    148 C50        -3.6680    6.7790   -0.5280 c3        1 MOL      0.030400
    149 C51        -2.5110    7.4110    0.3460 c3        1 MOL     -0.202488
    150 C52        -2.6890    8.9280    0.4570 c         1 MOL      0.723289
    151 O22        -2.5690    9.6510   -0.5600 o         1 MOL     -0.689091
    152 O23        -2.9820    9.5210    1.5480 o         1 MOL     -0.689091
    153 H65        -1.9790    4.7520   -1.3820 hn        1 MOL      0.304302
    154 H66        -4.0670    5.1990    0.6960 h1        1 MOL     -0.032796
    155 H67        -4.6080    7.2920   -0.3040 hc        1 MOL     -0.009455
    156 H68        -3.4490    6.8170   -1.5880 hc        1 MOL     -0.009455
    157 H69        -1.5250    7.1920   -0.0670 hc        1 MOL      0.007141
    158 H70        -2.6230    6.9150    1.3140 hc        1 MOL      0.007141
    159 N14        -5.8880    3.9200   -0.8030 n         1 MOL     -0.470625
    160 C53        -6.0770    3.5040    0.5800 c3        1 MOL     -0.054068
    161 C54        -6.4370    4.7500    1.4060 c         1 MOL      0.327201
    162 O24        -7.0740    5.7120    0.9210 o         1 MOL     -0.521027
    163 C55        -7.1660    2.4100    0.6260 c3        1 MOL      0.195199
    164 C56        -6.6870    1.1030   -0.0660 c3        1 MOL     -0.030393
    165 C57        -7.6560   -0.0860    0.0060 c         1 MOL      0.729160
    166 O25        -8.9050    0.0140   -0.0490 o         1 MOL     -0.747541
    167 O26        -7.1970   -1.2050   -0.0670 o         1 MOL     -0.747541
    168 H71        -6.6570    3.6120   -1.3830 hn        1 MOL      0.314446
    169 H72        -5.1230    3.1520    0.9730 h1        1 MOL      0.131338
    170 H73        -8.1050    2.7360    0.1650 hc        1 MOL     -0.039611
    171 H74        -7.3720    2.2540    1.6840 hc        1 MOL     -0.039611
    172 H75        -5.6720    0.8840    0.2750 hc        1 MOL     -0.023499
    173 H76        -6.6200    1.3110   -1.1320 hc        1 MOL     -0.023499
    174 N15        -5.9690    4.7760    2.6090 n         1 MOL     -0.140040
    175 C58        -6.1750    5.7490    3.7110 c3        1 MOL     -0.233085
    176 H77        -6.8280    6.5520    3.3690 h1        1 MOL      0.106642
    177 H78        -6.6370    5.2430    4.5600 h1        1 MOL      0.106642
    178 H79        -5.2150    6.1650    4.0140 h1        1 MOL      0.106642
    179 H80        -5.3880    3.9840    2.8380 hn        1 MOL      0.204687
    180 Ca1        -7.5660   -3.3020   -1.4060 Ca        1 MOL      1.684445
    181 O27        -6.9870   -6.0220   -1.3900 oh        1 MOL     -0.782805
    182 H81        -7.4950   -6.8260   -1.2670 ho        1 MOL      0.361896
    183 H82        -6.1480   -6.1940   -0.9700 ho        1 MOL      0.361896
    184 O28        -8.4020   -4.1390   -4.1330 oh        1 MOL     -0.782805
    185 H83        -8.0950   -3.9390   -5.0220 ho        1 MOL      0.361896
    186 H84        -9.0260   -4.8560   -4.2510 ho        1 MOL      0.361896
    187 O29        -7.2240   -1.4560   -3.1690 oh        1 MOL     -0.782805
    188 H85        -7.6690   -0.7710   -3.6590 ho        1 MOL      0.361896
    189 H86        -6.4350   -1.6420   -3.6810 ho        1 MOL      0.361896
    190 O30       -10.0470   -4.6250   -1.5260 oh        1 MOL     -0.782805
    191 H87       -10.7720   -4.6220   -0.9040 ho        1 MOL      0.361896
    192 H88       -10.1920   -5.3880   -2.0790 ho        1 MOL      0.361896
    193 O31       -10.0060   -1.6210   -1.9750 oh        1 MOL     -0.782805
    194 H89       -10.9440   -1.4750   -2.0920 ho        1 MOL      0.361896
    195 H90        -9.6850   -0.8200   -1.5610 ho        1 MOL      0.361896
@<TRIPOS>BOND
     1    1    2 1   
     2    1    4 1   
     3    1    5 1   
     4    1    6 1   
     5    2    3 2   
     6    2    7 1   
     7    7    8 1   
     8    7   15 1   
     9    8    9 1   
    10    8   11 1   
    11    8   16 1   
    12    9   10 2   
    13    9   19 1   
    14   11   12 1   
    15   11   17 1   
    16   11   18 1   
    17   12   13 1   
    18   12   14 1   
    19   19   20 1   
    20   19   27 1   
    21   20   21 1   
    22   20   23 1   
    23   20   28 1   
    24   21   22 2   
    25   21   38 1   
    26   23   24 1   
    27   23   25 1   
    28   23   29 1   
    29   24   26 1   
    30   24   30 1   
    31   24   31 1   
    32   25   32 1   
    33   25   33 1   
    34   25   34 1   
    35   26   35 1   
    36   26   36 1   
    37   26   37 1   
    38   38   39 1   
    39   38   46 1   
    40   39   40 1   
    41   39   42 1   
    42   39   47 1   
    43   40   41 2   
    44   40   50 1   
    45   42   43 1   
    46   42   48 1   
    47   42   49 1   
    48   43   44 1   
    49   43   45 1   
    50   50   51 1   
    51   50   54 1   
    52   51   52 1   
    53   51   55 1   
    54   51   56 1   
    55   52   53 2   
    56   52   57 1   
    57   57   58 1   
    58   57   65 1   
    59   58   59 1   
    60   58   61 1   
    61   58   66 1   
    62   59   60 2   
    63   59   69 1   
    64   61   62 1   
    65   61   67 1   
    66   61   68 1   
    67   62   63 1   
    68   62   64 1   
    69   69   70 1   
    70   69   73 1   
    71   70   71 1   
    72   70   74 1   
    73   70   75 1   
    74   71   72 2   
    75   71   76 1   
    76   76   77 1   
    77   76   85 1   
    78   77   78 1   
    79   77   80 1   
    80   77   86 1   
    81   78   79 2   
    82   78   93 1   
    83   80   81 1   
    84   80   87 1   
    85   80   88 1   
    86   81   82 1   
    87   81   89 1   
    88   81   90 1   
    89   82   83 1   
    90   82   84 2   
    91   83   91 1   
    92   83   92 1   
    93   93   94 1   
    94   93  100 1   
    95   94   95 1   
    96   94   97 1   
    97   94  101 1   
    98   95   96 2   
    99   95  109 1   
   100   97   98 1   
   101   97   99 1   
   102   97  102 1   
   103   98  103 1   
   104   98  104 1   
   105   98  105 1   
   106   99  106 1   
   107   99  107 1   
   108   99  108 1   
   109  109  110 1   
   110  109  117 1   
   111  110  111 1   
   112  110  113 1   
   113  110  118 1   
   114  111  112 2   
   115  111  123 1   
   116  113  114 1   
   117  113  119 1   
   118  113  120 1   
   119  114  115 1   
   120  114  116 2   
   121  115  121 1   
   122  115  122 1   
   123  123  124 1   
   124  123  135 1   
   125  124  125 1   
   126  124  127 1   
   127  124  136 1   
   128  125  126 2   
   129  125  144 1   
   130  127  128 1   
   131  127  137 1   
   132  127  138 1   
   133  128  129 ar  
   134  128  130 ar  
   135  129  131 ar  
   136  129  139 1   
   137  130  132 ar  
   138  130  140 1   
   139  131  133 ar  
   140  131  141 1   
   141  132  133 ar  
   142  132  142 1   
   143  133  134 1   
   144  134  143 1   
   145  144  145 1   
   146  144  153 1   
   147  145  146 1   
   148  145  148 1   
   149  145  154 1   
   150  146  147 2   
   151  146  159 1   
   152  148  149 1   
   153  148  155 1   
   154  148  156 1   
   155  149  150 1   
   156  149  157 1   
   157  149  158 1   
   158  150  151 1   
   159  150  152 1   
   160  159  160 1   
   161  159  168 1   
   162  160  161 1   
   163  160  163 1   
   164  160  169 1   
   165  161  162 2   
   166  161  174 1   
   167  163  164 1   
   168  163  170 1   
   169  163  171 1   
   170  164  165 1   
   171  164  172 1   
   172  164  173 1   
   173  165  166 1   
   174  165  167 1   
   175  174  175 1   
   176  174  179 1   
   177  175  176 1   
   178  175  177 1   
   179  175  178 1   
   180  181  182 1   
   181  181  183 1   
   182  184  185 1   
   183  184  186 1   
   184  187  188 1   
   185  187  189 1   
   186  190  191 1   
   187  190  192 1   
   188  193  194 1   
   189  193  195 1   
@<TRIPOS>SUBSTRUCTURE
     1 MOL         1 TEMP              0 ****  ****    0 ROOT
