@<TRIPOS>MOLECULE
MOL
  195   189     1     0     0
SMALL
resp


@<TRIPOS>ATOM
      1 C1          1.3460    3.8280    2.2050 c3        1 MOL     -0.006528
      2 C2          0.4370    3.9980    0.9270 c         1 MOL      0.510737
      3 O1         -0.3590    3.0880    0.7200 o         1 MOL     -0.468277
      4 H1          1.1320    2.8690    2.6770 hc        1 MOL     -0.018577
      5 H2          2.3960    3.8620    1.9130 hc        1 MOL     -0.018577
      6 H3          1.1390    4.6340    2.9090 hc        1 MOL     -0.018577
      7 N1          0.5380    5.1170    0.1800 n         1 MOL     -0.632304
      8 C3         -0.2670    5.5010   -0.9710 c3        1 MOL      0.281589
      9 C4         -1.7380    5.5400   -0.5650 c         1 MOL      0.429842
     10 O2         -2.6480    4.9860   -1.2140 o         1 MOL     -0.372797
     11 C5         -0.0130    4.5260   -2.1350 c3        1 MOL     -0.310055
     12 C6         -0.4750    5.0650   -3.5040 c         1 MOL      0.560618
     13 O3         -0.9700    6.2320   -3.5920 o         1 MOL     -0.577298
     14 O4         -0.5420    4.3010   -4.4840 o         1 MOL     -0.577298
     15 H4          1.4520    5.5470    0.2440 hn        1 MOL      0.304134
     16 H5         -0.0450    6.5290   -1.2710 h1        1 MOL      0.005437
     17 H6         -0.4970    3.5740   -1.9240 hc        1 MOL      0.115441
     18 H7          1.0590    4.3530   -2.2170 hc        1 MOL      0.115441
     19 N2         -1.9970    6.2930    0.5740 n         1 MOL     -0.419505
     20 C7         -3.2780    6.3380    1.2830 c3        1 MOL     -0.167111
     21 C8         -4.4610    6.9300    0.5270 c         1 MOL      0.429583
     22 O5         -4.2790    7.7790   -0.3350 o         1 MOL     -0.528211
     23 C9         -3.0840    7.0410    2.6990 c3        1 MOL      0.310379
     24 C10        -2.7040    8.4920    2.4520 c3        1 MOL     -0.119254
     25 C11        -2.0940    6.2260    3.6110 c3        1 MOL     -0.283917
     26 C12        -2.3570    9.3540    3.6900 c3        1 MOL     -0.247926
     27 H8         -1.1650    6.7910    0.8640 hn        1 MOL      0.267607
     28 H9         -3.5300    5.2770    1.3250 h1        1 MOL      0.137920
     29 H10        -4.0330    6.9940    3.2350 hc        1 MOL      0.005426
     30 H11        -3.5690    8.9930    2.0240 hc        1 MOL      0.070937
     31 H12        -1.8240    8.4720    1.8140 hc        1 MOL      0.070937
     32 H13        -2.2980    6.4820    4.6440 hc        1 MOL      0.063668
     33 H14        -2.2150    5.1640    3.4080 hc        1 MOL      0.063668
     34 H15        -1.0900    6.6030    3.3880 hc        1 MOL      0.063668
     35 H16        -3.1340    9.2000    4.4510 hc        1 MOL      0.051298
     36 H17        -1.4100    9.0420    4.1290 hc        1 MOL      0.051298
     37 H18        -2.4420   10.4000    3.4250 hc        1 MOL      0.051298
     38 N3         -5.7290    6.5000    0.6810 n         1 MOL     -0.493124
     39 C13        -6.1570    5.2300    1.3660 c3        1 MOL      0.141754
     40 C14        -5.9120    3.9530    0.4870 c         1 MOL      0.565030
     41 O6         -6.0880    2.8330    0.9970 o         1 MOL     -0.571870
     42 C15        -7.5860    5.3250    1.9250 c3        1 MOL     -0.187251
     43 C16        -8.7000    5.6340    0.9770 c         1 MOL      0.803624
     44 O7         -9.4610    6.5660    1.3040 o         1 MOL     -0.684111
     45 O8         -8.7600    5.0260   -0.0930 o         1 MOL     -0.684111
     46 H19        -6.3980    6.9790    0.0880 hn        1 MOL      0.314388
     47 H20        -5.4230    5.0780    2.1720 h1        1 MOL     -0.005209
     48 H21        -7.4940    6.0920    2.6850 hc        1 MOL      0.018984
     49 H22        -7.8320    4.4210    2.4750 hc        1 MOL      0.018984
     50 N4         -5.4680    4.1300   -0.8000 n         1 MOL     -0.331190
     51 C17        -4.9000    3.0330   -1.5870 c3        1 MOL     -0.221517
     52 C18        -5.9150    1.9500   -1.9320 c         1 MOL      0.499702
     53 O9         -7.1130    2.1220   -1.7420 o         1 MOL     -0.468575
     54 H23        -5.4670    5.0760   -1.1670 hn        1 MOL      0.311509
     55 H24        -4.0710    2.5760   -1.0480 h1        1 MOL      0.134112
     56 H25        -4.5830    3.3800   -2.5660 h1        1 MOL      0.134112
     57 N5         -5.4640    0.7530   -2.3530 n         1 MOL     -0.385165
     58 C19        -6.3530   -0.3000   -2.8410 c3        1 MOL     -0.000563
     59 C20        -7.0900   -0.9200   -1.6700 c         1 MOL      0.408279
     60 O10        -8.0450   -1.7090   -1.9150 o         1 MOL     -0.553996
     61 C21        -5.5170   -1.3350   -3.6160 c3        1 MOL     -0.016223
     62 C22        -4.3140   -1.8170   -2.9060 c         1 MOL      0.687700
     63 O11        -3.2070   -1.3990   -3.1890 o         1 MOL     -0.636875
     64 O12        -4.4830   -2.5790   -1.9480 o         1 MOL     -0.636875
     65 H26        -4.4840    0.6210   -2.5510 hn        1 MOL      0.256331
     66 H27        -7.2020    0.0790   -3.4190 h1        1 MOL      0.082032
     67 H28        -5.1640   -0.8960   -4.5430 hc        1 MOL     -0.018547
     68 H29        -6.1900   -2.1660   -3.8380 hc        1 MOL     -0.018547
     69 N6         -6.6550   -0.7060   -0.4100 n         1 MOL     -0.069406
     70 C23        -7.2240   -1.2890    0.8190 c3        1 MOL     -0.410619
     71 C24        -7.0970   -2.8570    0.9210 c         1 MOL      0.521897
     72 O13        -7.7060   -3.4090    1.8720 o         1 MOL     -0.604382
     73 H30        -5.7580   -0.2630   -0.2900 hn        1 MOL      0.234414
     74 H31        -8.2950   -1.0930    0.8970 h1        1 MOL      0.180518
     75 H32        -6.7430   -0.8340    1.6840 h1        1 MOL      0.180518
     76 N7         -6.4940   -3.5930   -0.0230 n         1 MOL      0.139338
     77 C25        -6.1820   -5.0350   -0.2180 c3        1 MOL      0.010371
     78 C26        -5.3850   -5.6830    0.9280 c         1 MOL      0.521084
     79 O14        -5.4930   -6.8290    1.3210 o         1 MOL     -0.528720
     80 C27        -7.3230   -5.8410   -0.7580 c3        1 MOL     -0.069418
     81 C28        -7.9650   -5.0720   -1.9670 c3        1 MOL     -0.044640
     82 C29        -8.7150   -6.0260   -2.8730 c         1 MOL      0.617043
     83 N8         -9.2820   -5.5760   -3.9610 n         1 MOL     -0.797562
     84 O15        -8.7350   -7.2750   -2.7060 o         1 MOL     -0.583278
     85 H33        -6.1920   -2.9390   -0.7370 hn        1 MOL     -0.196259
     86 H34        -5.4120   -5.0810   -0.9940 h1        1 MOL      0.107980
     87 H35        -8.1830   -5.9710   -0.0880 hc        1 MOL      0.020216
     88 H36        -7.0320   -6.8190   -1.1390 hc        1 MOL      0.020216
     89 H37        -7.1530   -4.6070   -2.5240 hc        1 MOL      0.058568
     90 H38        -8.6270   -4.2890   -1.5960 hc        1 MOL      0.058568
     91 H39        -9.3360   -4.5690   -4.0890 hn        1 MOL      0.353365
     92 H40        -9.6490   -6.2400   -4.6290 hn        1 MOL      0.353365
     93 N9         -4.5090   -4.8450    1.5000 n         1 MOL     -0.475982
     94 C30        -3.8390   -5.2700    2.7020 c3        1 MOL     -0.060154
     95 C31        -2.3080   -5.0500    2.5840 c         1 MOL      0.646621
     96 O16        -1.5680   -5.5640    3.4040 o         1 MOL     -0.582104
     97 C32        -4.4220   -4.6610    3.9490 c3        1 MOL      0.259085
     98 C33        -4.5390   -3.1480    3.9850 c3        1 MOL     -0.247843
     99 C34        -5.8640   -5.1930    4.2440 c3        1 MOL     -0.247843
    100 H41        -4.4770   -3.8890    1.1700 hn        1 MOL      0.289701
    101 H42        -3.8500   -6.3510    2.7950 h1        1 MOL      0.111994
    102 H43        -3.7820   -4.9930    4.7640 hc        1 MOL     -0.061319
    103 H44        -5.3430   -2.9340    3.2830 hc        1 MOL      0.053261
    104 H45        -4.7540   -2.8710    5.0160 hc        1 MOL      0.053261
    105 H46        -3.6590   -2.6240    3.6250 hc        1 MOL      0.053261
    106 H47        -5.8860   -6.2670    4.4070 hc        1 MOL      0.053261
    107 H48        -6.2950   -4.7260    5.1320 hc        1 MOL      0.053261
    108 H49        -6.5100   -4.9030    3.4100 hc        1 MOL      0.053261
    109 N10        -1.8130   -4.3380    1.5350 n         1 MOL     -0.531303
    110 C35        -0.4650   -3.7620    1.4610 c3        1 MOL      0.452181
    111 C36         0.2020   -3.8110    0.1410 c         1 MOL      0.369189
    112 O17        -0.4700   -4.1120   -0.8550 o         1 MOL     -0.506846
    113 C37        -0.5640   -2.2940    2.0020 c3        1 MOL     -0.401455
    114 C38         0.6960   -1.5020    2.2710 c         1 MOL      0.642357
    115 N11         0.5160   -0.2250    2.2030 n         1 MOL     -0.652777
    116 O18         1.8460   -1.8940    2.5360 o         1 MOL     -0.572262
    117 H50        -2.4720   -3.8680    0.9220 hn        1 MOL      0.219264
    118 H51         0.1220   -4.4310    2.0940 h1        1 MOL     -0.007361
    119 H52        -1.1100   -2.2800    2.9410 hc        1 MOL      0.116789
    120 H53        -1.0670   -1.6560    1.2790 hc        1 MOL      0.116789
    121 H54        -0.3640    0.1990    1.9340 hn        1 MOL      0.323083
    122 H55         1.3190    0.3220    2.4750 hn        1 MOL      0.323083
    123 N12         1.5500   -3.5390    0.0390 n         1 MOL     -0.330702
    124 C39         2.4810   -3.7660   -1.0670 c3        1 MOL      0.218513
    125 C40         3.9280   -3.8290   -0.5030 c         1 MOL      0.427769
    126 O19         4.1720   -3.3380    0.5980 o         1 MOL     -0.513663
    127 C41         2.2980   -2.7250   -2.1740 c3        1 MOL     -0.092902
    128 C42         2.6090   -1.2920   -1.7600 ca        1 MOL      0.161770
    129 C43         3.9290   -0.7900   -1.8750 ca        1 MOL     -0.284564
    130 C44         1.5510   -0.5000   -1.3330 ca        1 MOL     -0.284564
    131 C45         4.1850    0.5210   -1.3880 ca        1 MOL     -0.052593
    132 C46         1.7940    0.8390   -0.8770 ca        1 MOL     -0.052593
    133 C47         3.1380    1.3340   -0.8040 ca        1 MOL      0.091609
    134 O20         3.4120    2.5940   -0.2580 oh        1 MOL     -0.341719
    135 H56         1.9780   -3.2160    0.8970 hn        1 MOL      0.181136
    136 H57         2.3430   -4.7670   -1.4750 h1        1 MOL      0.013121
    137 H58         1.2820   -2.8590   -2.5500 hc        1 MOL      0.024188
    138 H59         2.9990   -3.0810   -2.9370 hc        1 MOL      0.024188
    139 H60         4.7550   -1.3640   -2.2500 ha        1 MOL      0.194176
    140 H61         0.5790   -0.9500   -1.2240 ha        1 MOL      0.194176
    141 H62         5.1850    0.9200   -1.3780 ha        1 MOL      0.066267
    142 H63         1.0080    1.5150   -0.5590 ha        1 MOL      0.066267
    143 H64         4.3110    2.8520   -0.4270 ho        1 MOL      0.267002
    144 N13         4.9130   -4.3500   -1.2280 n         1 MOL     -0.456202
    145 C48         6.2490   -4.6790   -0.6140 c3        1 MOL      0.376160
    146 C49         7.2720   -3.8400   -1.3780 c         1 MOL      0.234356
    147 O21         7.6650   -4.1800   -2.4790 o         1 MOL     -0.525000
    148 C50         6.5900   -6.2100   -0.7860 c3        1 MOL     -0.167254
    149 C51         5.7300   -7.1470    0.0490 c3        1 MOL     -0.178181
    150 C52         6.1780   -8.6350    0.0160 c         1 MOL      0.730455
    151 O22         6.3450   -9.2450   -1.1010 o         1 MOL     -0.670611
    152 O23         6.3570   -9.1490    1.1130 o         1 MOL     -0.670611
    153 H65         4.7170   -4.8460   -2.0840 hn        1 MOL      0.314375
    154 H66         6.1870   -4.4240    0.4460 h1        1 MOL     -0.058238
    155 H67         7.6030   -6.4090   -0.4390 hc        1 MOL      0.064816
    156 H68         6.5630   -6.3970   -1.8560 hc        1 MOL      0.064816
    157 H69         4.6870   -7.0300   -0.2450 hc        1 MOL      0.040637
    158 H70         5.9200   -6.8970    1.0980 hc        1 MOL      0.040637
    159 N14         7.7550   -2.7690   -0.8150 n         1 MOL     -0.343932
    160 C53         7.1910   -2.1450    0.4310 c3        1 MOL      0.063780
    161 C54         7.8080   -2.6120    1.7850 c         1 MOL      0.589750
    162 O24         8.7790   -3.3180    1.7590 o         1 MOL     -0.565517
    163 C55         7.4320   -0.6380    0.2770 c3        1 MOL      0.447641
    164 C56         8.9440   -0.1920    0.3590 c3        1 MOL     -0.776506
    165 C57         9.2010    1.2750    0.0320 c         1 MOL      0.668068
    166 O25        10.3480    1.7530    0.1870 o         1 MOL     -0.480028
    167 O26         8.3210    1.9190   -0.5730 o         1 MOL     -0.480028
    168 H71         8.5420   -2.3630   -1.2870 hn        1 MOL      0.325247
    169 H72         6.1010   -2.2560    0.4610 h1        1 MOL      0.044619
    170 H73         6.8880   -0.1400    1.0740 hc        1 MOL     -0.163946
    171 H74         7.0070   -0.4020   -0.7020 hc        1 MOL     -0.163946
    172 H75         9.5120   -0.7880   -0.3580 hc        1 MOL      0.153486
    173 H76         9.2600   -0.3780    1.3810 hc        1 MOL      0.153486
    174 N15         7.3060   -2.1920    2.9450 n         1 MOL     -0.233152
    175 C58         7.6700   -2.6480    4.2810 c3        1 MOL     -0.396823
    176 H77         7.2830   -3.6540    4.4390 h1        1 MOL      0.143090
    177 H78         8.7560   -2.6560    4.3800 h1        1 MOL      0.143090
    178 H79         7.2420   -1.9740    5.0240 h1        1 MOL      0.143090
    179 H80         6.5170   -1.5700    2.8280 hn        1 MOL      0.261572
    180 Ca1         9.7410    4.3850   -0.3240 Ca        1 MOL      1.616222
    181 O27        12.3540    4.3030    0.0310 oh        1 MOL     -1.074885
    182 H81        12.8970    5.0730    0.1800 ho        1 MOL      0.453499
    183 H82        12.8610    3.7640   -0.5810 ho        1 MOL      0.453499
    184 O28         9.9810    4.0730    2.3640 oh        1 MOL     -1.074885
    185 H83         9.4090    4.2280    3.1160 ho        1 MOL      0.453499
    186 H84        10.8210    3.8200    2.7510 ho        1 MOL      0.453499
    187 O29        10.4470    6.4750   -1.9150 oh        1 MOL     -1.074885
    188 H85         9.8380    6.9160   -2.5030 ho        1 MOL      0.453499
    189 H86        11.2910    6.8990   -2.0720 ho        1 MOL      0.453499
    190 O30        10.6330    3.3760   -2.6900 oh        1 MOL     -1.074885
    191 H87        10.5140    4.0080   -3.4070 ho        1 MOL      0.453499
    192 H88        11.0170    2.6080   -3.1130 ho        1 MOL      0.453499
    193 O31         7.8400    4.7630   -2.1330 oh        1 MOL     -1.074885
    194 H89         8.0880    5.0900   -2.9990 ho        1 MOL      0.453499
    195 H90         6.9890    4.3390   -2.2620 ho        1 MOL      0.453499
@<TRIPOS>BOND
     1    1    2 1   
     2    1    4 1   
     3    1    5 1   
     4    1    6 1   
     5    2    3 2   
     6    2    7 1   
     7    7    8 1   
     8    7   15 1   
     9    8    9 1   
    10    8   11 1   
    11    8   16 1   
    12    9   10 2   
    13    9   19 1   
    14   11   12 1   
    15   11   17 1   
    16   11   18 1   
    17   12   13 1   
    18   12   14 1   
    19   19   20 1   
    20   19   27 1   
    21   20   21 1   
    22   20   23 1   
    23   20   28 1   
    24   21   22 2   
    25   21   38 1   
    26   23   24 1   
    27   23   25 1   
    28   23   29 1   
    29   24   26 1   
    30   24   30 1   
    31   24   31 1   
    32   25   32 1   
    33   25   33 1   
    34   25   34 1   
    35   26   35 1   
    36   26   36 1   
    37   26   37 1   
    38   38   39 1   
    39   38   46 1   
    40   39   40 1   
    41   39   42 1   
    42   39   47 1   
    43   40   41 2   
    44   40   50 1   
    45   42   43 1   
    46   42   48 1   
    47   42   49 1   
    48   43   44 1   
    49   43   45 1   
    50   50   51 1   
    51   50   54 1   
    52   51   52 1   
    53   51   55 1   
    54   51   56 1   
    55   52   53 2   
    56   52   57 1   
    57   57   58 1   
    58   57   65 1   
    59   58   59 1   
    60   58   61 1   
    61   58   66 1   
    62   59   60 2   
    63   59   69 1   
    64   61   62 1   
    65   61   67 1   
    66   61   68 1   
    67   62   63 1   
    68   62   64 1   
    69   69   70 1   
    70   69   73 1   
    71   70   71 1   
    72   70   74 1   
    73   70   75 1   
    74   71   72 2   
    75   71   76 1   
    76   76   77 1   
    77   76   85 1   
    78   77   78 1   
    79   77   80 1   
    80   77   86 1   
    81   78   79 2   
    82   78   93 1   
    83   80   81 1   
    84   80   87 1   
    85   80   88 1   
    86   81   82 1   
    87   81   89 1   
    88   81   90 1   
    89   82   83 1   
    90   82   84 2   
    91   83   91 1   
    92   83   92 1   
    93   93   94 1   
    94   93  100 1   
    95   94   95 1   
    96   94   97 1   
    97   94  101 1   
    98   95   96 2   
    99   95  109 1   
   100   97   98 1   
   101   97   99 1   
   102   97  102 1   
   103   98  103 1   
   104   98  104 1   
   105   98  105 1   
   106   99  106 1   
   107   99  107 1   
   108   99  108 1   
   109  109  110 1   
   110  109  117 1   
   111  110  111 1   
   112  110  113 1   
   113  110  118 1   
   114  111  112 2   
   115  111  123 1   
   116  113  114 1   
   117  113  119 1   
   118  113  120 1   
   119  114  115 1   
   120  114  116 2   
   121  115  121 1   
   122  115  122 1   
   123  123  124 1   
   124  123  135 1   
   125  124  125 1   
   126  124  127 1   
   127  124  136 1   
   128  125  126 2   
   129  125  144 1   
   130  127  128 1   
   131  127  137 1   
   132  127  138 1   
   133  128  129 ar  
   134  128  130 ar  
   135  129  131 ar  
   136  129  139 1   
   137  130  132 ar  
   138  130  140 1   
   139  131  133 ar  
   140  131  141 1   
   141  132  133 ar  
   142  132  142 1   
   143  133  134 1   
   144  134  143 1   
   145  144  145 1   
   146  144  153 1   
   147  145  146 1   
   148  145  148 1   
   149  145  154 1   
   150  146  147 2   
   151  146  159 1   
   152  148  149 1   
   153  148  155 1   
   154  148  156 1   
   155  149  150 1   
   156  149  157 1   
   157  149  158 1   
   158  150  151 1   
   159  150  152 1   
   160  159  160 1   
   161  159  168 1   
   162  160  161 1   
   163  160  163 1   
   164  160  169 1   
   165  161  162 2   
   166  161  174 1   
   167  163  164 1   
   168  163  170 1   
   169  163  171 1   
   170  164  165 1   
   171  164  172 1   
   172  164  173 1   
   173  165  166 1   
   174  165  167 1   
   175  174  175 1   
   176  174  179 1   
   177  175  176 1   
   178  175  177 1   
   179  175  178 1   
   180  181  182 1   
   181  181  183 1   
   182  184  185 1   
   183  184  186 1   
   184  187  188 1   
   185  187  189 1   
   186  190  191 1   
   187  190  192 1   
   188  193  194 1   
   189  193  195 1   
@<TRIPOS>SUBSTRUCTURE
     1 MOL         1 TEMP              0 ****  ****    0 ROOT
