@<TRIPOS>MOLECULE
MOL
  189   185     1     0     0
SMALL
resp


@<TRIPOS>ATOM
      1 C1          4.3650   -7.6070   -1.0780 c3        1 MOL     -0.386303
      2 C2          3.9800   -6.2340   -0.4700 c         1 MOL      0.641408
      3 O1          3.5540   -6.1610    0.6860 o         1 MOL     -0.608368
      4 H1          3.7920   -8.3950   -0.5870 hc        1 MOL      0.103738
      5 H2          4.1420   -7.6080   -2.1450 hc        1 MOL      0.103738
      6 H3          5.4300   -7.7860   -0.9280 hc        1 MOL      0.103738
      7 N1          3.9990   -5.1280   -1.1760 n         1 MOL     -0.307244
      8 C3          3.9050   -3.7610   -0.6760 c3        1 MOL     -0.060389
      9 C4          2.5590   -3.0070   -0.9160 c         1 MOL      0.200410
     10 O2          2.3740   -1.9460   -0.3640 o         1 MOL     -0.409648
     11 C5          5.0940   -3.0780   -1.4130 c3        1 MOL     -0.035887
     12 C6          5.3420   -3.1700   -2.9210 c         1 MOL      0.688557
     13 O3          5.5000   -4.3100   -3.4930 o         1 MOL     -0.698924
     14 O4          5.6230   -2.1160   -3.4830 o         1 MOL     -0.698924
     15 H4          4.3530   -5.2710   -2.1130 hn        1 MOL      0.158032
     16 H5          4.1370   -3.8380    0.3870 h1        1 MOL      0.097133
     17 H6          6.0510   -3.3250   -0.9520 hc        1 MOL      0.018003
     18 H7          4.8940   -2.0350   -1.1960 hc        1 MOL      0.018003
     19 N2          1.6050   -3.6060   -1.5940 n         1 MOL     -0.028604
     20 C7          0.2790   -3.0830   -1.9040 c3        1 MOL      0.184601
     21 C8         -0.8300   -3.5970   -0.9670 c         1 MOL      0.232459
     22 O5         -1.0070   -4.8110   -0.8710 o         1 MOL     -0.523039
     23 C9          0.0760   -3.5430   -3.3750 c3        1 MOL     -0.077177
     24 C10         1.2340   -3.6210   -4.3890 c3        1 MOL     -0.085003
     25 C11         1.8840   -2.2650   -4.4890 c3        1 MOL      0.010724
     26 C12         1.1980   -1.2470   -5.4310 c3        1 MOL      0.124561
     27 N3          1.7890    0.1320   -5.3150 n4        1 MOL     -0.214202
     28 H8          1.7980   -4.5890   -1.7330 hn        1 MOL      0.149361
     29 H9          0.3950   -2.0010   -1.9210 h1        1 MOL      0.027358
     30 H10        -0.6400   -2.8530   -3.8110 hc        1 MOL      0.043182
     31 H11        -0.3570   -4.5410   -3.4340 hc        1 MOL      0.043182
     32 H12         0.7340   -3.9210   -5.3150 hc        1 MOL      0.050634
     33 H13         1.9080   -4.4360   -4.1570 hc        1 MOL      0.050634
     34 H14         2.9520   -2.3000   -4.7100 hc        1 MOL     -0.007461
     35 H15         1.8630   -1.7990   -3.5060 hc        1 MOL     -0.007461
     36 H16         0.1560   -1.2660   -5.0970 hx        1 MOL      0.024663
     37 H17         1.2600   -1.5370   -6.4710 hx        1 MOL      0.024663
     38 H18         1.6860    0.6420   -6.1740 hn        1 MOL      0.273878
     39 H19         1.4060    0.7260   -4.5990 hn        1 MOL      0.273878
     40 H20         2.7790    0.1280   -5.1120 hn        1 MOL      0.273878
     41 N4         -1.6790   -2.8220   -0.3270 n         1 MOL     -0.147125
     42 C13        -1.7810   -1.4000   -0.4280 c3        1 MOL     -0.030189
     43 C14        -2.1350   -0.7560   -1.8350 c         1 MOL      0.457304
     44 O6         -1.2250   -0.2710   -2.5000 o         1 MOL     -0.555396
     45 C15        -0.6590   -0.7000    0.3860 c3        1 MOL     -0.021057
     46 C16        -0.5890   -1.0870    1.8700 c         1 MOL      0.867359
     47 O7          0.2530   -0.5530    2.5840 o         1 MOL     -0.886942
     48 O8         -1.3490   -1.8440    2.4110 o         1 MOL     -0.886942
     49 H21        -2.4390   -3.3220    0.1210 hn        1 MOL      0.252056
     50 H22        -2.6330   -1.1240    0.2000 h1        1 MOL      0.086491
     51 H23        -0.9830    0.3380    0.3780 hc        1 MOL      0.006920
     52 H24         0.3220   -0.8400   -0.0700 hc        1 MOL      0.006920
     53 N5         -3.3950   -0.6850   -2.2470 n         1 MOL     -0.341612
     54 C17        -4.5030   -1.3350   -1.6700 c3        1 MOL     -0.024552
     55 C18        -5.6780   -1.7420   -2.6640 c         1 MOL      0.525388
     56 O9         -5.5120   -1.6690   -3.8750 o         1 MOL     -0.549782
     57 H25        -3.5380   -0.1680   -3.1050 hn        1 MOL      0.259343
     58 H26        -4.9280   -0.7970   -0.8230 h1        1 MOL      0.047695
     59 H27        -4.1080   -2.2330   -1.1850 h1        1 MOL      0.047695
     60 N6         -6.8490   -2.1130   -2.1910 n         1 MOL     -0.434110
     61 C19        -7.1470   -2.4590   -0.8090 c3        1 MOL      0.111940
     62 C20        -7.6160   -1.1860    0.0680 c         1 MOL      0.551748
     63 O10        -7.7210   -0.0380   -0.3580 o         1 MOL     -0.489346
     64 C21        -8.1420   -3.6550   -0.8000 c3        1 MOL     -0.197080
     65 C22        -9.3830   -3.5160   -1.7260 c         1 MOL      0.692455
     66 O11       -10.2990   -2.7940   -1.2840 o         1 MOL     -0.651758
     67 O12        -9.3330   -3.9490   -2.8850 o         1 MOL     -0.651758
     68 H28        -7.4880   -2.4100   -2.9090 hn        1 MOL      0.325674
     69 H29        -6.2560   -2.8740   -0.3320 h1        1 MOL      0.000077
     70 H30        -8.4010   -3.7840    0.2570 hc        1 MOL      0.019219
     71 H31        -7.6940   -4.6020   -1.0730 hc        1 MOL      0.019219
     72 N7         -7.7810   -1.4880    1.3140 n         1 MOL     -0.390500
     73 C23        -8.3470   -0.4760    2.2230 c3        1 MOL     -0.275073
     74 C24        -7.4590    0.6740    2.5960 c         1 MOL      0.532505
     75 O13        -7.9760    1.6570    3.0940 o         1 MOL     -0.533430
     76 H32        -7.6090   -2.4190    1.6710 hn        1 MOL      0.294252
     77 H33        -8.6950   -0.9700    3.1290 h1        1 MOL      0.168064
     78 H34        -9.2200   -0.0140    1.7630 h1        1 MOL      0.168064
     79 N8         -6.1240    0.5230    2.3290 n         1 MOL     -0.356868
     80 C25        -5.1950    1.6970    2.4350 c3        1 MOL      0.070550
     81 C26        -4.4290    1.6690    1.1020 c         1 MOL      0.423211
     82 O14        -3.4640    0.9170    0.9010 o         1 MOL     -0.508493
     83 C27        -4.2150    1.6450    3.5380 c3        1 MOL      0.259067
     84 C28        -4.8960    1.8790    4.8740 c3        1 MOL     -0.252463
     85 O15        -3.2560    2.6630    3.5350 oh        1 MOL     -0.549133
     86 H35        -5.8080   -0.3710    1.9920 hn        1 MOL      0.206924
     87 H36        -5.7640    2.6280    2.5160 h1        1 MOL      0.093273
     88 H37        -3.7700    0.6580    3.6680 h1        1 MOL      0.019848
     89 H38        -2.4150    2.2780    3.2860 ho        1 MOL      0.369037
     90 H39        -5.6780    1.1200    4.9330 hc        1 MOL      0.065213
     91 H40        -4.2340    1.6940    5.7290 hc        1 MOL      0.065213
     92 H41        -5.2260    2.9030    4.9840 hc        1 MOL      0.065213
     93 N9         -4.6920    2.5530    0.1450 n         1 MOL     -0.336911
     94 C29        -3.9200    2.6750   -1.1210 c3        1 MOL     -0.133920
     95 C30        -2.6930    3.5430   -1.0910 c         1 MOL      0.443359
     96 O16        -2.0220    3.7320   -2.1160 o         1 MOL     -0.560058
     97 C31        -4.8250    3.1410   -2.3430 c3        1 MOL     -0.020028
     98 C32        -5.6230    4.4220   -1.9860 c3        1 MOL      0.225430
     99 C33        -5.8580    1.9780   -2.6590 c3        1 MOL     -0.242601
    100 C34        -4.8310    5.7340   -2.2010 c3        1 MOL     -0.316605
    101 H42        -5.4510    3.1930    0.3040 hn        1 MOL      0.267224
    102 H43        -3.5350    1.6790   -1.3560 h1        1 MOL      0.204487
    103 H44        -4.2000    3.3610   -3.2170 hc        1 MOL      0.073119
    104 H45        -6.0550    4.3540   -0.9910 hc        1 MOL     -0.016626
    105 H46        -6.5570    4.5310   -2.5190 hc        1 MOL     -0.016626
    106 H47        -6.6350    2.3870   -3.3000 hc        1 MOL      0.067659
    107 H48        -5.3770    1.0870   -3.0620 hc        1 MOL      0.067659
    108 H49        -6.2990    1.7250   -1.7000 hc        1 MOL      0.067659
    109 H50        -3.8370    5.6200   -1.7660 hc        1 MOL      0.069844
    110 H51        -4.7070    5.9090   -3.2680 hc        1 MOL      0.069844
    111 H52        -5.3300    6.4950   -1.5990 hc        1 MOL      0.069844
    112 N10        -2.2270    3.9950    0.1010 n         1 MOL     -0.220643
    113 C35        -1.0730    4.8260    0.2700 c3        1 MOL      0.018313
    114 C36         0.1580    3.9930    0.1370 c         1 MOL      0.707757
    115 O17         0.5060    3.3400    1.1140 o         1 MOL     -0.521565
    116 C37        -1.1580    5.6280    1.6520 c3        1 MOL      0.262488
    117 C38        -2.5000    6.4120    1.8480 c3        1 MOL     -0.235093
    118 O18        -0.1330    6.5950    1.7590 oh        1 MOL     -0.611261
    119 H53        -2.6980    3.7020    0.9480 hn        1 MOL      0.140498
    120 H54        -1.0360    5.5840   -0.5180 h1        1 MOL      0.043740
    121 H55        -1.0550    4.8850    2.4450 h1        1 MOL      0.015880
    122 H56        -0.4530    7.1520    2.4670 ho        1 MOL      0.401584
    123 H57        -3.3380    5.7730    1.5620 hc        1 MOL      0.059292
    124 H58        -2.5990    6.7680    2.8760 hc        1 MOL      0.059292
    125 H59        -2.4170    7.2910    1.2020 hc        1 MOL      0.059292
    126 N11         0.7630    3.9360   -1.0290 n         1 MOL     -0.569222
    127 C39         1.9880    3.1380   -1.0970 c3        1 MOL     -0.086631
    128 C40         3.2140    3.7440   -0.4240 c         1 MOL      0.630850
    129 O19         3.2440    4.9210   -0.0430 o         1 MOL     -0.521159
    130 C41         2.3840    2.8490   -2.5910 c3        1 MOL      0.381402
    131 C42         2.7210    4.0390   -3.4700 c3        1 MOL     -0.499224
    132 O20         1.4080    2.0220   -3.1700 oh        1 MOL     -0.668557
    133 H60         0.4340    4.4450   -1.8370 hn        1 MOL      0.327805
    134 H61         1.8900    2.1450   -0.6700 h1        1 MOL      0.122361
    135 H62         3.2900    2.2300   -2.5920 h1        1 MOL      0.064149
    136 H63         0.5700    2.4970   -3.1090 ho        1 MOL      0.434468
    137 H64         3.3860    4.6960   -2.9040 hc        1 MOL      0.127188
    138 H65         3.3160    3.8400   -4.3620 hc        1 MOL      0.127188
    139 H66         1.8320    4.6360   -3.7020 hc        1 MOL      0.127188
    140 N12         4.1500    2.8140   -0.0940 n         1 MOL     -0.471420
    141 C43         5.4370    3.1720    0.6860 c3        1 MOL     -0.244971
    142 C44         6.0320    2.0070    1.5280 c         1 MOL      0.526358
    143 O21         7.1670    2.1310    2.0370 o         1 MOL     -0.525241
    144 C45         6.5380    3.8620   -0.2000 c3        1 MOL     -0.055182
    145 C46         7.1310    2.8420   -1.2430 c3        1 MOL     -0.093858
    146 C47         8.5880    3.2960   -1.7110 c3        1 MOL      0.043988
    147 C48         8.3860    4.5850   -2.4630 c3        1 MOL      0.068549
    148 N13         9.5640    5.1670   -3.1850 n4        1 MOL     -0.379199
    149 H67         4.0060    1.8520   -0.3420 hn        1 MOL      0.242639
    150 H68         5.1360    3.8560    1.4860 h1        1 MOL      0.187959
    151 H69         7.2500    4.2600    0.5170 hc        1 MOL      0.067234
    152 H70         6.1940    4.6910   -0.8270 hc        1 MOL      0.067234
    153 H71         6.4260    2.8310   -2.0770 hc        1 MOL      0.044291
    154 H72         7.2280    1.8580   -0.7740 hc        1 MOL      0.044291
    155 H73         9.1300    2.5350   -2.2860 hc        1 MOL      0.041957
    156 H74         9.2410    3.4830   -0.8540 hc        1 MOL      0.041957
    157 H75         8.0100    5.3300   -1.7640 hx        1 MOL      0.054882
    158 H76         7.5910    4.4410   -3.2050 hx        1 MOL      0.054882
    159 H77         9.9620    4.4410   -3.7660 hn        1 MOL      0.296253
    160 H78         9.1900    5.8570   -3.8170 hn        1 MOL      0.296253
    161 H79        10.2860    5.6110   -2.6240 hn        1 MOL      0.296253
    162 N14         5.3380    0.8840    1.6680 n         1 MOL     -0.068231
    163 C49         5.8970   -0.2290    2.3960 c3        1 MOL     -0.638293
    164 C50         6.9100   -1.0910    1.7110 c         1 MOL      0.646721
    165 O22         6.8710   -1.2600    0.4850 o         1 MOL     -0.499347
    166 C51         4.7080   -1.1140    2.9770 c3        1 MOL      0.411732
    167 C52         4.2630   -0.5440    4.3230 c3        1 MOL     -0.080873
    168 C53         3.1450   -1.2570    5.0310 c         1 MOL      0.837959
    169 O23         3.2320   -2.4800    5.2390 o         1 MOL     -0.805824
    170 O24         2.1390   -0.6410    5.5070 o         1 MOL     -0.805824
    171 H80         4.4010    0.8020    1.3370 hn        1 MOL      0.265146
    172 H81         6.3870    0.2390    3.2510 h1        1 MOL      0.155821
    173 H82         4.9760   -2.1590    3.1150 hc        1 MOL     -0.056879
    174 H83         3.8130   -1.1040    2.3610 hc        1 MOL     -0.056879
    175 H84         3.9330    0.4890    4.1620 hc        1 MOL     -0.023917
    176 H85         5.1870   -0.6150    4.8890 hc        1 MOL     -0.023917
    177 N15         7.8500   -1.6190    2.5630 n         1 MOL     -0.372780
    178 C54         8.9630   -2.4900    2.0570 c3        1 MOL     -0.006377
    179 H86         8.5840   -3.4960    1.8800 h1        1 MOL      0.055295
    180 H87         9.3520   -2.0790    1.1260 h1        1 MOL      0.055295
    181 H88         9.7610   -2.5280    2.7990 h1        1 MOL      0.055295
    182 H89         7.8840   -1.2690    3.5080 hn        1 MOL      0.292229
    183 Ca1         0.0640   -1.9460    4.8220 Ca        1 MOL      1.746266
    184 O25         0.5380   -3.5710    6.9230 oh        1 MOL     -0.872800
    185 H90         0.1750   -3.6490    7.8010 ho        1 MOL      0.445408
    186 H91         1.1030   -4.3410    6.8240 ho        1 MOL      0.445408
    187 O26         1.3250   -3.7110    3.2610 oh        1 MOL     -0.872800
    188 H92         2.0380   -3.3450    2.7470 ho        1 MOL      0.445408
    189 H93         1.1330   -4.5520    2.8430 ho        1 MOL      0.445408
@<TRIPOS>BOND
     1    1    2 1   
     2    1    4 1   
     3    1    5 1   
     4    1    6 1   
     5    2    3 2   
     6    2    7 1   
     7    7    8 1   
     8    7   15 1   
     9    8    9 1   
    10    8   11 1   
    11    8   16 1   
    12    9   10 2   
    13    9   19 1   
    14   11   12 1   
    15   11   17 1   
    16   11   18 1   
    17   12   13 1   
    18   12   14 1   
    19   19   20 1   
    20   19   28 1   
    21   20   21 1   
    22   20   23 1   
    23   20   29 1   
    24   21   22 2   
    25   21   41 1   
    26   23   24 1   
    27   23   30 1   
    28   23   31 1   
    29   24   25 1   
    30   24   32 1   
    31   24   33 1   
    32   25   26 1   
    33   25   34 1   
    34   25   35 1   
    35   26   27 1   
    36   26   36 1   
    37   26   37 1   
    38   27   38 1   
    39   27   39 1   
    40   27   40 1   
    41   41   42 1   
    42   41   49 1   
    43   42   43 1   
    44   42   45 1   
    45   42   50 1   
    46   43   44 2   
    47   43   53 1   
    48   45   46 1   
    49   45   51 1   
    50   45   52 1   
    51   46   47 1   
    52   46   48 1   
    53   53   54 1   
    54   53   57 1   
    55   54   55 1   
    56   54   58 1   
    57   54   59 1   
    58   55   56 2   
    59   55   60 1   
    60   60   61 1   
    61   60   68 1   
    62   61   62 1   
    63   61   64 1   
    64   61   69 1   
    65   62   63 2   
    66   62   72 1   
    67   64   65 1   
    68   64   70 1   
    69   64   71 1   
    70   65   66 1   
    71   65   67 1   
    72   72   73 1   
    73   72   76 1   
    74   73   74 1   
    75   73   77 1   
    76   73   78 1   
    77   74   75 2   
    78   74   79 1   
    79   79   80 1   
    80   79   86 1   
    81   80   81 1   
    82   80   83 1   
    83   80   87 1   
    84   81   82 2   
    85   81   93 1   
    86   83   84 1   
    87   83   85 1   
    88   83   88 1   
    89   84   90 1   
    90   84   91 1   
    91   84   92 1   
    92   85   89 1   
    93   93   94 1   
    94   93  101 1   
    95   94   95 1   
    96   94   97 1   
    97   94  102 1   
    98   95   96 2   
    99   95  112 1   
   100   97   98 1   
   101   97   99 1   
   102   97  103 1   
   103   98  100 1   
   104   98  104 1   
   105   98  105 1   
   106   99  106 1   
   107   99  107 1   
   108   99  108 1   
   109  100  109 1   
   110  100  110 1   
   111  100  111 1   
   112  112  113 1   
   113  112  119 1   
   114  113  114 1   
   115  113  116 1   
   116  113  120 1   
   117  114  115 2   
   118  114  126 1   
   119  116  117 1   
   120  116  118 1   
   121  116  121 1   
   122  117  123 1   
   123  117  124 1   
   124  117  125 1   
   125  118  122 1   
   126  126  127 1   
   127  126  133 1   
   128  127  128 1   
   129  127  130 1   
   130  127  134 1   
   131  128  129 2   
   132  128  140 1   
   133  130  131 1   
   134  130  132 1   
   135  130  135 1   
   136  131  137 1   
   137  131  138 1   
   138  131  139 1   
   139  132  136 1   
   140  140  141 1   
   141  140  149 1   
   142  141  142 1   
   143  141  144 1   
   144  141  150 1   
   145  142  143 2   
   146  142  162 1   
   147  144  145 1   
   148  144  151 1   
   149  144  152 1   
   150  145  146 1   
   151  145  153 1   
   152  145  154 1   
   153  146  147 1   
   154  146  155 1   
   155  146  156 1   
   156  147  148 1   
   157  147  157 1   
   158  147  158 1   
   159  148  159 1   
   160  148  160 1   
   161  148  161 1   
   162  162  163 1   
   163  162  171 1   
   164  163  164 1   
   165  163  166 1   
   166  163  172 1   
   167  164  165 2   
   168  164  177 1   
   169  166  167 1   
   170  166  173 1   
   171  166  174 1   
   172  167  168 1   
   173  167  175 1   
   174  167  176 1   
   175  168  169 1   
   176  168  170 1   
   177  177  178 1   
   178  177  182 1   
   179  178  179 1   
   180  178  180 1   
   181  178  181 1   
   182  184  185 1   
   183  184  186 1   
   184  187  188 1   
   185  187  189 1   
@<TRIPOS>SUBSTRUCTURE
     1 MOL         1 TEMP              0 ****  ****    0 ROOT
