@<TRIPOS>MOLECULE
MOL
  195   189     1     0     0
SMALL
resp


@<TRIPOS>ATOM
      1 C1         10.1740    6.9730   -1.3800 c3        1 MOL     -0.484475
      2 C2          9.3110    5.7660   -1.2610 c         1 MOL      0.769352
      3 O1          8.0820    5.8840   -1.4000 o         1 MOL     -0.666684
      4 H1         10.1760    7.3170   -2.4150 hc        1 MOL      0.124722
      5 H2          9.7870    7.7620   -0.7360 hc        1 MOL      0.124722
      6 H3         11.1910    6.7230   -1.0790 hc        1 MOL      0.124722
      7 N1          9.8700    4.5780   -1.0110 n         1 MOL     -0.585016
      8 C3          9.1030    3.2720   -0.7730 c3        1 MOL      0.149352
      9 C4          8.1630    3.4040    0.3920 c         1 MOL      0.598376
     10 O2          8.5510    3.9250    1.4440 o         1 MOL     -0.544960
     11 C5         10.1010    2.1310   -0.4720 c3        1 MOL     -0.301892
     12 C6          9.3680    0.7280   -0.4850 c         1 MOL      0.719283
     13 O3          9.7510   -0.2040    0.2510 o         1 MOL     -0.686081
     14 O4          8.3060    0.6540   -1.1390 o         1 MOL     -0.686081
     15 H4         10.8770    4.4580   -0.9650 hn        1 MOL      0.310562
     16 H5          8.5360    3.1180   -1.6880 h1        1 MOL      0.024299
     17 H6         10.5540    2.4170    0.4790 hc        1 MOL      0.078253
     18 H7         10.8550    2.0780   -1.2520 hc        1 MOL      0.078253
     19 N2          6.9000    2.9890    0.2060 n         1 MOL     -0.336011
     20 C7          5.8220    3.3420    1.1160 c3        1 MOL      0.003084
     21 C8          5.4000    2.2700    2.1550 c         1 MOL      0.461316
     22 O5          4.9770    2.7330    3.2290 o         1 MOL     -0.557779
     23 C9          4.6020    3.6990    0.2450 c3        1 MOL     -0.278643
     24 C10         4.7780    5.0290   -0.5530 c3        1 MOL      0.254792
     25 C11         3.4020    5.4420   -1.1200 c3        1 MOL     -0.316908
     26 C12         3.5160    6.8710   -1.6920 c3        1 MOL      0.068796
     27 N3          2.2160    7.4590   -2.0440 n4        1 MOL     -0.279422
     28 H8          6.6440    2.4640   -0.6180 hn        1 MOL      0.189205
     29 H9          6.0320    4.2810    1.6310 h1        1 MOL      0.099029
     30 H10         3.7150    3.6810    0.8840 hc        1 MOL      0.128954
     31 H11         4.5130    2.9560   -0.5450 hc        1 MOL      0.128954
     32 H12         5.4760    4.8800   -1.3810 hc        1 MOL      0.018573
     33 H13         5.1580    5.7780    0.1400 hc        1 MOL      0.018573
     34 H14         2.6800    5.4620   -0.3000 hc        1 MOL      0.085459
     35 H15         3.0960    4.7990   -1.9460 hc        1 MOL      0.085459
     36 H16         4.2220    6.9230   -2.5240 hx        1 MOL      0.084830
     37 H17         3.9710    7.4870   -0.9140 hx        1 MOL      0.084830
     38 H18         1.5510    7.5950   -1.2880 hn        1 MOL      0.295435
     39 H19         2.3340    8.2750   -2.6270 hn        1 MOL      0.295435
     40 H20         1.8070    6.8480   -2.7330 hn        1 MOL      0.295435
     41 N4          5.4150    0.8940    2.0420 n         1 MOL     -0.236769
     42 C13         5.7140    0.0300    0.8730 c3        1 MOL     -0.052426
     43 C14         6.1700   -1.4190    1.3030 c         1 MOL      0.328166
     44 O6          5.7240   -1.9840    2.3490 o         1 MOL     -0.479722
     45 C15         4.4510   -0.1200   -0.0810 c3        1 MOL      0.145095
     46 C16         3.3210   -0.7990    0.6580 c         1 MOL      0.692252
     47 O7          3.2370   -2.0550    0.5690 o         1 MOL     -0.786917
     48 O8          2.5940   -0.2210    1.4850 o         1 MOL     -0.786917
     49 H21         5.1620    0.4490    2.9110 hn        1 MOL      0.223459
     50 H22         6.4590    0.5800    0.2930 h1        1 MOL      0.083507
     51 H23         4.6700   -0.7930   -0.9150 hc        1 MOL     -0.087834
     52 H24         4.1330    0.8360   -0.4800 hc        1 MOL     -0.087834
     53 N5          7.0640   -2.0580    0.4620 n         1 MOL     -0.054859
     54 C17         7.4860   -3.4990    0.6500 c3        1 MOL     -0.394469
     55 C18         6.5160   -4.6040    0.2220 c         1 MOL      0.456333
     56 O9          7.0030   -5.6900   -0.1740 o         1 MOL     -0.529362
     57 H25         7.2690   -1.5010   -0.3550 hn        1 MOL      0.191498
     58 H26         7.7340   -3.7010    1.6890 h1        1 MOL      0.193835
     59 H27         8.4390   -3.5810    0.1280 h1        1 MOL      0.193835
     60 N6          5.2210   -4.3140    0.0920 n         1 MOL     -0.030487
     61 C19         4.1460   -5.3160   -0.1910 c3        1 MOL     -0.015983
     62 C20         4.3000   -6.0840   -1.5240 c         1 MOL      0.503745
     63 O10         4.4030   -7.3170   -1.5320 o         1 MOL     -0.555396
     64 C21         3.8680   -6.2750    1.0260 c3        1 MOL      0.006746
     65 C22         3.6910   -5.4400    2.3110 c         1 MOL      0.552753
     66 O11         4.2930   -5.7730    3.3450 o         1 MOL     -0.664914
     67 O12         2.8870   -4.5000    2.2250 o         1 MOL     -0.664914
     68 H28         4.8720   -3.4230    0.4060 hn        1 MOL      0.099934
     69 H29         3.2320   -4.7370   -0.3440 h1        1 MOL      0.066498
     70 H30         4.6610   -7.0120    1.1340 hc        1 MOL      0.013239
     71 H31         2.9570   -6.8700    0.9940 hc        1 MOL      0.013239
     72 N7          4.4060   -5.4500   -2.6760 n         1 MOL     -0.427452
     73 C23         4.0290   -4.0360   -2.8910 c3        1 MOL     -0.080771
     74 C24         2.5310   -3.9700   -2.7980 c         1 MOL      0.445715
     75 O13         1.8700   -4.6070   -3.6320 o         1 MOL     -0.547685
     76 H32         4.5340   -6.0520   -3.4750 hn        1 MOL      0.311014
     77 H33         4.2490   -3.7820   -3.9260 h1        1 MOL      0.084268
     78 H34         4.5780   -3.3780   -2.2120 h1        1 MOL      0.084268
     79 N8          1.9600   -3.2170   -1.8690 n         1 MOL     -0.234097
     80 C25         0.4730   -3.0600   -1.6430 c3        1 MOL     -0.375446
     81 C26         0.1700   -1.5620   -1.1510 c         1 MOL      0.658277
     82 O14         0.3940   -1.2520   -0.0030 o         1 MOL     -0.409169
     83 C27        -0.0540   -4.1920   -0.6890 c3        1 MOL      0.595335
     84 C28        -1.6180   -4.2570   -0.7890 c3        1 MOL     -0.516238
     85 O15         0.3250   -4.0540    0.5990 oh        1 MOL     -0.799896
     86 H35         2.5910   -2.7450   -1.2330 hn        1 MOL      0.242653
     87 H36        -0.0030   -3.1580   -2.6170 h1        1 MOL      0.106457
     88 H37         0.3890   -5.1490   -0.9560 h1        1 MOL      0.026178
     89 H38         0.1100   -4.9020    1.0070 ho        1 MOL      0.401696
     90 H39        -2.1290   -3.3300   -0.5540 hc        1 MOL      0.128582
     91 H40        -1.9780   -4.7460   -1.7000 hc        1 MOL      0.128582
     92 H41        -1.9590   -4.9690   -0.0360 hc        1 MOL      0.128582
     93 N9         -0.1330   -0.7530   -2.2010 n         1 MOL     -0.597839
     94 C29        -0.4160    0.6730   -2.1060 c3        1 MOL      0.025189
     95 C30        -1.7870    0.8800   -1.4340 c         1 MOL      0.373134
     96 O16        -2.1760    0.0780   -0.5400 o         1 MOL     -0.442633
     97 C31         0.8190    1.4190   -1.5560 c3        1 MOL      0.217266
     98 C32         1.9290    1.3960   -2.6350 c3        1 MOL      0.067871
     99 C33         0.4170    2.8490   -1.0860 c3        1 MOL     -0.026574
    100 C34         1.6780    2.0940   -3.9930 c3        1 MOL     -0.176858
    101 H42        -0.2080   -1.1660   -3.1220 hn        1 MOL      0.365889
    102 H43        -0.6340    0.9580   -3.1390 h1        1 MOL      0.053959
    103 H44         1.2310    0.8540   -0.7110 hc        1 MOL     -0.020743
    104 H45         2.2020    0.3610   -2.8370 hc        1 MOL      0.010876
    105 H46         2.7910    1.8680   -2.1700 hc        1 MOL      0.010876
    106 H47         1.2860    3.4880   -0.9150 hc        1 MOL     -0.024879
    107 H48        -0.3130    3.3040   -1.7720 hc        1 MOL     -0.024879
    108 H49        -0.1220    2.7680   -0.1530 hc        1 MOL     -0.024879
    109 H50         2.5700    2.1760   -4.6190 hc        1 MOL      0.025967
    110 H51         0.8990    1.6380   -4.6130 hc        1 MOL      0.025967
    111 H52         1.4190    3.1320   -3.8210 hc        1 MOL      0.025967
    112 N10        -2.4510    2.0390   -1.6180 n         1 MOL     -0.291068
    113 C35        -3.5500    2.5200   -0.8610 c3        1 MOL      0.045179
    114 C36        -4.9980    2.1480   -1.3040 c         1 MOL      0.483775
    115 O17        -5.9880    2.8440   -1.1150 o         1 MOL     -0.525594
    116 C37        -3.5970    3.9700   -0.3930 c3        1 MOL      0.528190
    117 C38        -3.5200    4.8330   -1.6460 c3        1 MOL     -0.277669
    118 O18        -2.5120    4.3300    0.3970 oh        1 MOL     -0.672898
    119 H53        -2.1870    2.4210   -2.5160 hn        1 MOL      0.204711
    120 H54        -3.5170    1.9620    0.0830 h1        1 MOL      0.138437
    121 H55        -4.5000    4.1240    0.1960 h1        1 MOL     -0.013181
    122 H56        -2.3160    5.2490    0.2110 ho        1 MOL      0.397793
    123 H57        -2.6350    4.6010   -2.2480 hc        1 MOL      0.032865
    124 H58        -4.3240    4.5280   -2.3110 hc        1 MOL      0.032865
    125 H59        -3.4870    5.9100   -1.4780 hc        1 MOL      0.032865
    126 N11        -5.1920    0.8870   -1.7710 n         1 MOL     -0.405559
    127 C39        -6.4620    0.3260   -2.3150 c3        1 MOL     -0.131125
    128 C40        -7.4270   -0.1480   -1.2350 c         1 MOL      0.666931
    129 O19        -7.0150   -0.6340   -0.1620 o         1 MOL     -0.451236
    130 C41        -6.1400   -0.8920   -3.2900 c3        1 MOL      0.229869
    131 C42        -5.6260   -0.3310   -4.5950 c3        1 MOL     -0.154282
    132 O20        -5.1870   -1.7910   -2.6920 oh        1 MOL     -0.535583
    133 H60        -4.4390    0.2090   -1.7620 hn        1 MOL      0.229806
    134 H61        -6.9520    1.1380   -2.8580 h1        1 MOL      0.098248
    135 H62        -7.0340   -1.4770   -3.5050 h1        1 MOL     -0.002586
    136 H63        -4.5700   -2.0090   -3.3930 ho        1 MOL      0.373036
    137 H64        -5.2250   -1.0190   -5.3480 hc        1 MOL      0.044195
    138 H65        -6.4570    0.0490   -5.1940 hc        1 MOL      0.044195
    139 H66        -4.8350    0.3930   -4.3880 hc        1 MOL      0.044195
    140 N12        -8.7690   -0.0630   -1.5330 n         1 MOL     -0.495770
    141 C43        -9.7630   -0.5850   -0.5540 c3        1 MOL      0.355105
    142 C44        -9.5330   -0.1360    0.8850 c         1 MOL      0.395666
    143 O21        -9.7170   -0.8590    1.8100 o         1 MOL     -0.442690
    144 C45        -9.9140   -2.1350   -0.6790 c3        1 MOL     -0.479346
    145 C46       -10.3450   -2.5450   -2.1110 c3        1 MOL      0.181624
    146 C47       -11.6860   -1.9340   -2.6200 c3        1 MOL     -0.235250
    147 C48       -11.9350   -2.5070   -4.0090 c3        1 MOL     -0.127472
    148 N13       -10.9410   -2.1740   -5.0560 n4        1 MOL     -0.115674
    149 H67        -9.1420    0.2200   -2.4270 hn        1 MOL      0.200697
    150 H68       -10.6870   -0.1600   -0.9340 h1        1 MOL     -0.001743
    151 H69       -10.7160   -2.3480    0.0160 hc        1 MOL      0.156255
    152 H70        -8.9600   -2.5310   -0.3200 hc        1 MOL      0.156255
    153 H71       -10.5050   -3.6220   -2.1520 hc        1 MOL      0.001829
    154 H72        -9.5060   -2.3820   -2.7920 hc        1 MOL      0.001829
    155 H73       -11.7480   -0.8540   -2.5690 hc        1 MOL      0.116438
    156 H74       -12.5190   -2.1980   -1.9670 hc        1 MOL      0.116438
    157 H75       -12.9300   -2.1720   -4.3170 hx        1 MOL      0.136558
    158 H76       -11.9360   -3.5920   -3.9350 hx        1 MOL      0.136558
    159 H77       -11.0000   -1.1990   -5.3260 hn        1 MOL      0.183341
    160 H78        -9.9650   -2.3590   -4.8590 hn        1 MOL      0.183341
    161 H79       -11.1970   -2.6570   -5.9070 hn        1 MOL      0.183341
    162 N14        -9.0490    1.1190    1.0700 n         1 MOL     -0.596921
    163 C49        -8.2280    1.4820    2.2260 c3        1 MOL      0.371752
    164 C50        -7.3350    2.5850    1.7970 c         1 MOL      0.365803
    165 O22        -6.1460    2.4710    2.0440 o         1 MOL     -0.568108
    166 C51        -9.1450    1.8240    3.4390 c3        1 MOL      0.131385
    167 C52        -8.3920    2.0590    4.7740 c3        1 MOL     -0.249081
    168 C53        -9.2230    1.9690    6.0530 c         1 MOL      0.722386
    169 O23       -10.4480    2.0210    5.9880 o         1 MOL     -0.614683
    170 O24        -8.6450    1.9440    7.1690 o         1 MOL     -0.614683
    171 H80        -8.8540    1.5790    0.1910 hn        1 MOL      0.214502
    172 H81        -7.6010    0.7010    2.6460 h1        1 MOL      0.037769
    173 H82        -9.7950    0.9550    3.5540 hc        1 MOL     -0.022545
    174 H83        -9.7890    2.6650    3.1860 hc        1 MOL     -0.022545
    175 H84        -7.9580    3.0520    4.6500 hc        1 MOL      0.042294
    176 H85        -7.5700    1.3510    4.8620 hc        1 MOL      0.042294
    177 N15        -7.7180    3.6030    1.0270 n         1 MOL     -0.257424
    178 C54        -9.1040    4.1870    0.9060 c3        1 MOL     -0.194266
    179 H86        -9.2900    4.8580    1.7440 h1        1 MOL      0.088927
    180 H87        -9.1840    4.7430   -0.0290 h1        1 MOL      0.088927
    181 H88        -9.8400    3.3830    0.9150 h1        1 MOL      0.088927
    182 H89        -6.9940    4.0590    0.4960 hn        1 MOL      0.255980
    183 Ca1         1.4180   -2.3470    2.3670 Ca        1 MOL      1.787176
    184 O25         0.5140   -0.4580    4.0160 oh        1 MOL     -0.843057
    185 H90        -0.0070    0.2730    3.6650 ho        1 MOL      0.421837
    186 H91         1.0800   -0.0500    4.6700 ho        1 MOL      0.421837
    187 O26        -1.2590   -2.4530    2.7720 oh        1 MOL     -0.843057
    188 H92        -2.1230   -2.3480    2.3900 ho        1 MOL      0.421837
    189 H93        -1.4110   -2.9490    3.5800 ho        1 MOL      0.421837
    190 O27         3.4230   -1.9050    4.0220 oh        1 MOL     -0.843057
    191 H94         3.7200   -1.1610    4.5360 ho        1 MOL      0.421837
    192 H95         4.2200   -2.2630    3.6250 ho        1 MOL      0.421837
    193 O28         0.8310   -3.4470    5.1660 oh        1 MOL     -0.843057
    194 H96         0.3170   -3.2220    5.9490 ho        1 MOL      0.421837
    195 H97         1.6590   -3.7770    5.4990 ho        1 MOL      0.421837
@<TRIPOS>BOND
     1    1    2 1   
     2    1    4 1   
     3    1    5 1   
     4    1    6 1   
     5    2    3 2   
     6    2    7 1   
     7    7    8 1   
     8    7   15 1   
     9    8    9 1   
    10    8   11 1   
    11    8   16 1   
    12    9   10 2   
    13    9   19 1   
    14   11   12 1   
    15   11   17 1   
    16   11   18 1   
    17   12   13 1   
    18   12   14 1   
    19   19   20 1   
    20   19   28 1   
    21   20   21 1   
    22   20   23 1   
    23   20   29 1   
    24   21   22 2   
    25   21   41 1   
    26   23   24 1   
    27   23   30 1   
    28   23   31 1   
    29   24   25 1   
    30   24   32 1   
    31   24   33 1   
    32   25   26 1   
    33   25   34 1   
    34   25   35 1   
    35   26   27 1   
    36   26   36 1   
    37   26   37 1   
    38   27   38 1   
    39   27   39 1   
    40   27   40 1   
    41   41   42 1   
    42   41   49 1   
    43   42   43 1   
    44   42   45 1   
    45   42   50 1   
    46   43   44 2   
    47   43   53 1   
    48   45   46 1   
    49   45   51 1   
    50   45   52 1   
    51   46   47 1   
    52   46   48 1   
    53   53   54 1   
    54   53   57 1   
    55   54   55 1   
    56   54   58 1   
    57   54   59 1   
    58   55   56 2   
    59   55   60 1   
    60   60   61 1   
    61   60   68 1   
    62   61   62 1   
    63   61   64 1   
    64   61   69 1   
    65   62   63 2   
    66   62   72 1   
    67   64   65 1   
    68   64   70 1   
    69   64   71 1   
    70   65   66 1   
    71   65   67 1   
    72   72   73 1   
    73   72   76 1   
    74   73   74 1   
    75   73   77 1   
    76   73   78 1   
    77   74   75 2   
    78   74   79 1   
    79   79   80 1   
    80   79   86 1   
    81   80   81 1   
    82   80   83 1   
    83   80   87 1   
    84   81   82 2   
    85   81   93 1   
    86   83   84 1   
    87   83   85 1   
    88   83   88 1   
    89   84   90 1   
    90   84   91 1   
    91   84   92 1   
    92   85   89 1   
    93   93   94 1   
    94   93  101 1   
    95   94   95 1   
    96   94   97 1   
    97   94  102 1   
    98   95   96 2   
    99   95  112 1   
   100   97   98 1   
   101   97   99 1   
   102   97  103 1   
   103   98  100 1   
   104   98  104 1   
   105   98  105 1   
   106   99  106 1   
   107   99  107 1   
   108   99  108 1   
   109  100  109 1   
   110  100  110 1   
   111  100  111 1   
   112  112  113 1   
   113  112  119 1   
   114  113  114 1   
   115  113  116 1   
   116  113  120 1   
   117  114  115 2   
   118  114  126 1   
   119  116  117 1   
   120  116  118 1   
   121  116  121 1   
   122  117  123 1   
   123  117  124 1   
   124  117  125 1   
   125  118  122 1   
   126  126  127 1   
   127  126  133 1   
   128  127  128 1   
   129  127  130 1   
   130  127  134 1   
   131  128  129 2   
   132  128  140 1   
   133  130  131 1   
   134  130  132 1   
   135  130  135 1   
   136  131  137 1   
   137  131  138 1   
   138  131  139 1   
   139  132  136 1   
   140  140  141 1   
   141  140  149 1   
   142  141  142 1   
   143  141  144 1   
   144  141  150 1   
   145  142  143 2   
   146  142  162 1   
   147  144  145 1   
   148  144  151 1   
   149  144  152 1   
   150  145  146 1   
   151  145  153 1   
   152  145  154 1   
   153  146  147 1   
   154  146  155 1   
   155  146  156 1   
   156  147  148 1   
   157  147  157 1   
   158  147  158 1   
   159  148  159 1   
   160  148  160 1   
   161  148  161 1   
   162  162  163 1   
   163  162  171 1   
   164  163  164 1   
   165  163  166 1   
   166  163  172 1   
   167  164  165 2   
   168  164  177 1   
   169  166  167 1   
   170  166  173 1   
   171  166  174 1   
   172  167  168 1   
   173  167  175 1   
   174  167  176 1   
   175  168  169 1   
   176  168  170 1   
   177  177  178 1   
   178  177  182 1   
   179  178  179 1   
   180  178  180 1   
   181  178  181 1   
   182  184  185 1   
   183  184  186 1   
   184  187  188 1   
   185  187  189 1   
   186  190  191 1   
   187  190  192 1   
   188  193  194 1   
   189  193  195 1   
@<TRIPOS>SUBSTRUCTURE
     1 MOL         1 TEMP              0 ****  ****    0 ROOT
