@<TRIPOS>MOLECULE
MOL
  201   193     1     0     0
SMALL
resp


@<TRIPOS>ATOM
      1 C1         -2.5170   -5.0400   -0.8470 c3        1 MOL     -0.407519
      2 C2         -1.5240   -3.9900   -0.3710 c         1 MOL      0.754620
      3 O1         -1.9430   -3.2610    0.5130 o         1 MOL     -0.671764
      4 H1         -3.3130   -5.1470   -0.1100 hc        1 MOL      0.095953
      5 H2         -2.9440   -4.7310   -1.8000 hc        1 MOL      0.095953
      6 H3         -2.0060   -5.9950   -0.9690 hc        1 MOL      0.095953
      7 N1         -0.2600   -3.8850   -0.8150 n         1 MOL     -0.452498
      8 C3          0.5890   -4.7780   -1.5830 c3        1 MOL     -0.091410
      9 C4          1.4690   -5.6870   -0.7090 c         1 MOL      0.537149
     10 O2          1.9100   -6.6320   -1.3160 o         1 MOL     -0.565860
     11 C5          1.4330   -3.8980   -2.5490 c3        1 MOL     -0.078668
     12 C6          0.7300   -2.7960   -3.3750 c         1 MOL      0.683561
     13 O3          0.1510   -3.2230   -4.3790 o         1 MOL     -0.680492
     14 O4          0.8660   -1.5630   -3.1120 o         1 MOL     -0.680492
     15 H4          0.1510   -3.0670   -0.3880 hn        1 MOL      0.216552
     16 H5         -0.1540   -5.3760   -2.1170 h1        1 MOL      0.106186
     17 H6          1.9870   -4.6220   -3.1520 hc        1 MOL      0.031283
     18 H7          2.1800   -3.3140   -2.0160 hc        1 MOL      0.031283
     19 N2          1.6750   -5.4370    0.5580 n         1 MOL     -0.253163
     20 C7          2.4400   -6.2440    1.5850 c3        1 MOL     -0.181107
     21 C8          4.0070   -6.0450    1.5040 c         1 MOL      0.392726
     22 O5          4.7220   -7.0060    1.8930 o         1 MOL     -0.544632
     23 C9          2.0570   -5.8240    3.0320 c3        1 MOL      0.134666
     24 C10         2.2130   -4.3490    3.4240 c3        1 MOL      0.054969
     25 C11         0.5470   -6.1070    3.2600 c3        1 MOL     -0.256889
     26 C12         1.8390   -4.0190    4.8000 c3        1 MOL     -0.371464
     27 H8          1.3760   -4.5250    0.8900 hn        1 MOL      0.107816
     28 H9          2.2850   -7.3070    1.3910 h1        1 MOL      0.150591
     29 H10         2.6290   -6.4380    3.7220 hc        1 MOL      0.015532
     30 H11         1.5300   -3.7750    2.8020 hc        1 MOL      0.043437
     31 H12         3.1900   -4.0100    3.0800 hc        1 MOL      0.043437
     32 H13        -0.1170   -5.3310    2.8770 hc        1 MOL      0.059138
     33 H14         0.3410   -7.0810    2.8300 hc        1 MOL      0.059138
     34 H15         0.3340   -6.4120    4.2880 hc        1 MOL      0.059138
     35 H16         2.3810   -4.6780    5.4870 hc        1 MOL      0.086902
     36 H17         2.1270   -2.9780    5.0090 hc        1 MOL      0.086902
     37 H18         0.7670   -4.1410    4.8830 hc        1 MOL      0.086902
     38 N3          4.4850   -5.0590    0.7300 n         1 MOL     -0.212815
     39 C13         5.8920   -4.8630    0.2820 c3        1 MOL      0.139165
     40 C14         5.8330   -3.7590   -0.7860 c         1 MOL      0.196175
     41 O6          5.1400   -2.7460   -0.5740 o         1 MOL     -0.403562
     42 C15         6.7930   -4.4380    1.3480 c3        1 MOL     -0.219322
     43 C16         8.1990   -4.1060    1.0200 c         1 MOL      0.745776
     44 O7          8.5340   -4.1290   -0.2000 o         1 MOL     -0.677676
     45 O8          9.0500   -3.9460    1.9330 o         1 MOL     -0.677676
     46 H19         3.8200   -4.3730    0.4110 hn        1 MOL      0.205924
     47 H20         6.2330   -5.7730   -0.2240 h1        1 MOL      0.061129
     48 H21         6.8290   -5.2580    2.0690 hc        1 MOL      0.044025
     49 H22         6.3840   -3.5690    1.8530 hc        1 MOL      0.044025
     50 N4          6.4210   -3.9420   -1.9230 n         1 MOL     -0.242327
     51 C17         6.5730   -2.9130   -2.9400 c3        1 MOL     -0.031246
     52 C18         7.1010   -1.4980   -2.5160 c         1 MOL      0.445475
     53 O9          6.6190   -0.5110   -3.0920 o         1 MOL     -0.549490
     54 H23         6.7850   -4.8780   -2.0910 hn        1 MOL      0.261935
     55 H24         5.6130   -2.7580   -3.4200 h1        1 MOL      0.065628
     56 H25         7.1800   -3.2910   -3.7620 h1        1 MOL      0.065628
     57 N5          7.8750   -1.4370   -1.4440 n         1 MOL     -0.276686
     58 C19         8.1190   -0.1840   -0.7000 c3        1 MOL      0.086506
     59 C20         7.2870    0.1140    0.4910 c         1 MOL      0.634756
     60 O10         7.1980   -0.6890    1.4020 o         1 MOL     -0.584242
     61 C21         9.5820   -0.2800   -0.2640 c3        1 MOL     -0.223702
     62 C22        10.4720   -0.5400   -1.4380 c         1 MOL      0.688957
     63 O11        10.9900   -1.6840   -1.5790 o         1 MOL     -0.647488
     64 O12        10.8000    0.4390   -2.1490 o         1 MOL     -0.647488
     65 H26         8.0310   -2.3400   -1.0210 hn        1 MOL      0.301497
     66 H27         8.0400    0.6400   -1.4110 h1        1 MOL      0.014229
     67 H28         9.6900   -1.1300    0.4000 hc        1 MOL      0.062581
     68 H29         9.8790    0.5810    0.3390 hc        1 MOL      0.062581
     69 N6          6.6500    1.2450    0.7010 n         1 MOL     -0.567200
     70 C23         6.7890    2.4700   -0.1330 c3        1 MOL      0.077421
     71 C24         6.3220    3.7900    0.6740 c         1 MOL      0.528066
     72 O13         6.3380    3.8370    1.8480 o         1 MOL     -0.516720
     73 H30         6.0750    1.3380    1.5330 hn        1 MOL      0.312566
     74 H31         6.1890    2.2750   -1.0220 h1        1 MOL      0.065178
     75 H32         7.8000    2.5470   -0.5200 h1        1 MOL      0.065178
     76 N7          5.8610    4.8300   -0.0090 n         1 MOL     -0.479004
     77 C25         5.4230    4.9470   -1.4600 c3        1 MOL      0.011996
     78 C26         4.2330    4.0550   -1.8920 c         1 MOL      0.394268
     79 O14         4.4060    3.3860   -2.8870 o         1 MOL     -0.455956
     80 C27         6.6140    4.9020   -2.4010 c3        1 MOL     -0.053328
     81 C28         7.5090    6.1830   -2.1860 c3        1 MOL     -0.225912
     82 C29         6.7490    7.5180   -2.2810 c         1 MOL      0.708037
     83 N8          6.3860    8.1690   -1.2370 n         1 MOL     -0.823365
     84 O15         6.4100    7.9660   -3.3610 o         1 MOL     -0.580122
     85 H33         5.6580    5.6430    0.5600 hn        1 MOL      0.248235
     86 H34         5.1240    5.9900   -1.5280 h1        1 MOL      0.046176
     87 H35         6.2680    4.8630   -3.4390 hc        1 MOL      0.089035
     88 H36         7.1990    4.0070   -2.1940 hc        1 MOL      0.089035
     89 H37         8.0890    6.2040   -3.1110 hc        1 MOL      0.059017
     90 H38         8.1980    6.1760   -1.3430 hc        1 MOL      0.059017
     91 H39         6.2530    7.6710   -0.3650 hn        1 MOL      0.362146
     92 H40         5.7970    8.9940   -1.3420 hn        1 MOL      0.362146
     93 N9          3.2540    3.9380   -0.9510 n         1 MOL     -0.202510
     94 C30         2.2990    2.8710   -0.7940 c3        1 MOL      0.005046
     95 C31         2.1450    2.4000    0.6490 c         1 MOL      0.391691
     96 O16         2.6310    3.0830    1.5890 o         1 MOL     -0.524497
     97 C32         0.9790    3.2800   -1.2960 c3        1 MOL      0.097134
     98 C33         0.9060    3.3770   -2.8650 c3        1 MOL     -0.270928
     99 C34         0.4870    4.6450   -0.7080 c3        1 MOL     -0.270928
    100 H41         3.2080    4.5980   -0.1890 hn        1 MOL      0.185129
    101 H42         2.6020    1.9510   -1.2900 h1        1 MOL      0.097770
    102 H43         0.2960    2.4480   -1.1210 hc        1 MOL      0.058930
    103 H44        -0.1320    3.3080   -3.1760 hc        1 MOL      0.077258
    104 H45         1.4170    4.2710   -3.2250 hc        1 MOL      0.077258
    105 H46         1.4430    2.5030   -3.2360 hc        1 MOL      0.077258
    106 H47        -0.5790    4.7250   -0.9000 hc        1 MOL      0.077258
    107 H48         0.6410    4.5860    0.3730 hc        1 MOL      0.077258
    108 H49         1.0490    5.4380   -1.1870 hc        1 MOL      0.077258
    109 N10         1.5430    1.2720    0.9080 n         1 MOL     -0.252039
    110 C35         1.2900    0.7350    2.2090 c3        1 MOL      0.003945
    111 C36         0.0560    1.3620    2.9330 c         1 MOL      0.417957
    112 O17        -0.1440    1.1510    4.1290 o         1 MOL     -0.546384
    113 C37         1.0770   -0.7820    2.1640 c3        1 MOL     -0.136226
    114 C38         2.0290   -1.5020    1.2080 c         1 MOL      0.551864
    115 N11         3.2680   -1.1850    1.0260 n         1 MOL     -0.799973
    116 O18         1.6030   -2.5110    0.6640 o         1 MOL     -0.423516
    117 H50         1.1850    0.7820    0.0930 hn        1 MOL      0.272564
    118 H51         2.1400    0.9250    2.8570 h1        1 MOL      0.101388
    119 H52         0.0810   -0.9990    1.7670 hc        1 MOL      0.081213
    120 H53         1.1840   -1.2110    3.1570 hc        1 MOL      0.081213
    121 H54         3.6760   -0.4060    1.5150 hn        1 MOL      0.381948
    122 H55         3.8510   -1.9060    0.6180 hn        1 MOL      0.381948
    123 N12        -0.8590    2.1440    2.3080 n         1 MOL     -0.117687
    124 C39        -2.2390    2.4390    2.7610 c3        1 MOL      0.062134
    125 C40        -3.0980    2.6470    1.5150 c         1 MOL      0.619029
    126 O19        -2.6180    3.0420    0.4380 o         1 MOL     -0.500005
    127 C41        -2.2830    3.6200    3.7680 c3        1 MOL      0.108578
    128 C42        -1.7790    4.9280    3.2020 ca        1 MOL     -0.121407
    129 C43        -2.7110    5.9100    2.6060 ca        1 MOL     -0.065354
    130 C44        -0.3960    5.1950    3.0840 ca        1 MOL     -0.065354
    131 C45        -2.2220    7.0020    1.8010 ca        1 MOL     -0.359726
    132 C46         0.0390    6.3920    2.4680 ca        1 MOL     -0.359726
    133 C47        -0.8220    7.1850    1.6890 ca        1 MOL      0.423368
    134 O20        -0.2660    8.1620    0.9600 oh        1 MOL     -0.504224
    135 H56        -0.6020    2.3270    1.3410 hn        1 MOL      0.027707
    136 H57        -2.6480    1.5480    3.2410 h1        1 MOL      0.003773
    137 H58        -1.6950    3.3350    4.6380 hc        1 MOL     -0.013445
    138 H59        -3.3130    3.6690    4.1340 hc        1 MOL     -0.013445
    139 H60        -3.7830    5.7820    2.6530 ha        1 MOL      0.126309
    140 H61         0.3410    4.4980    3.4560 ha        1 MOL      0.126309
    141 H62        -2.9490    7.5760    1.2470 ha        1 MOL      0.179986
    142 H63         1.0970    6.6020    2.4650 ha        1 MOL      0.179986
    143 H64         0.6850    8.2870    1.0880 ho        1 MOL      0.352695
    144 N13        -4.3740    2.2490    1.6240 n         1 MOL     -0.724547
    145 C48        -5.4160    2.4040    0.6710 c3        1 MOL      0.291745
    146 C49        -6.0620    1.0400    0.6100 c         1 MOL      0.224382
    147 O21        -7.2000    0.8670    1.0450 o         1 MOL     -0.410910
    148 C50        -6.3450    3.6050    1.0270 c3        1 MOL     -0.135088
    149 C51        -7.3100    3.7900   -0.1930 c3        1 MOL     -0.220373
    150 C52        -8.1090    5.1060   -0.0320 c         1 MOL      0.760020
    151 O22        -9.3530    5.0400   -0.1690 o         1 MOL     -0.738725
    152 O23        -7.5740    6.1550    0.2190 o         1 MOL     -0.738725
    153 H65        -4.5780    1.8910    2.5520 hn        1 MOL      0.357141
    154 H66        -4.8720    2.5990   -0.2540 h1        1 MOL      0.071402
    155 H67        -5.7060    4.4820    1.1290 hc        1 MOL      0.067442
    156 H68        -6.9820    3.6060    1.9110 hc        1 MOL      0.067442
    157 H69        -8.0420    2.9870   -0.1820 hc        1 MOL      0.043126
    158 H70        -6.7560    3.8850   -1.1190 hc        1 MOL      0.043126
    159 N14        -5.3240   -0.0270    0.1910 n         1 MOL     -0.496803
    160 C53        -5.8240   -1.3950    0.3460 c3        1 MOL      0.293348
    161 C54        -5.4580   -1.9850    1.7210 c         1 MOL      0.252527
    162 O24        -6.1740   -2.8370    2.2500 o         1 MOL     -0.506989
    163 C55        -5.3420   -2.3790   -0.7510 c3        1 MOL     -0.195204
    164 C56        -5.7030   -1.7560   -2.1750 c3        1 MOL     -0.227562
    165 C57        -7.2120   -1.7650   -2.2700 c         1 MOL      0.473939
    166 O25        -7.9460   -0.7440   -2.1870 o         1 MOL     -0.608501
    167 O26        -7.7270   -2.9030   -2.3030 o         1 MOL     -0.608501
    168 H71        -4.3370    0.0580    0.0380 hn        1 MOL      0.335266
    169 H72        -6.9110   -1.3900    0.2570 h1        1 MOL      0.095903
    170 H73        -5.7150   -3.3880   -0.6150 hc        1 MOL      0.104058
    171 H74        -4.2660   -2.3900   -0.5630 hc        1 MOL      0.104058
    172 H75        -5.2680   -2.3520   -2.9770 hc        1 MOL      0.084621
    173 H76        -5.1800   -0.8150   -2.3180 hc        1 MOL      0.084621
    174 N15        -4.4100   -1.4590    2.3030 n         1 MOL     -0.068064
    175 C58        -4.0350   -1.6300    3.7540 c3        1 MOL     -0.222301
    176 H77        -4.7230   -2.3320    4.2260 h1        1 MOL      0.099064
    177 H78        -3.0180   -2.0170    3.8230 h1        1 MOL      0.099064
    178 H79        -4.0940   -0.6680    4.2610 h1        1 MOL      0.099064
    179 H80        -3.7600   -0.9670    1.7120 hn        1 MOL      0.176642
    180 Ca1       -10.3560   -1.5130   -1.6090 Ca        1 MOL      1.779493
    181 O27        -9.7680    0.4820   -0.0100 oh        1 MOL     -0.809497
    182 O28       -13.0040   -1.5670   -2.4700 oh        1 MOL     -0.809497
    183 H81        -8.8730    0.6150    0.3110 ho        1 MOL      0.358820
    184 H82       -13.6260   -2.2980   -2.4160 ho        1 MOL      0.358820
    185 H83       -10.1440    1.3620   -0.0130 ho        1 MOL      0.358820
    186 H84       -13.5010   -0.8550   -2.8610 ho        1 MOL      0.358820
    187 O29        -9.3350   -2.4420    0.6060 oh        1 MOL     -0.809497
    188 H85        -9.7910   -2.0630    1.3530 ho        1 MOL      0.358820
    189 H86        -9.0710   -3.3110    0.8990 ho        1 MOL      0.358820
    190 O30       -10.6760   -4.2700   -1.6540 oh        1 MOL     -0.809497
    191 H87       -11.1350   -4.5180   -0.8550 ho        1 MOL      0.358820
    192 H88       -10.2830   -5.0840   -1.9580 ho        1 MOL      0.358820
    193 O31       -10.9150    1.0130   -2.5550 oh        1 MOL     -0.809497
    194 H89       -10.7460    1.6380   -1.8610 ho        1 MOL      0.358820
    195 H90       -10.3600    1.2990   -3.2780 ho        1 MOL      0.358820
    196 O32       -12.3210   -1.7100    0.2290 oh        1 MOL     -0.809497
    197 H91       -13.0370   -2.2270    0.6110 ho        1 MOL      0.358820
    198 H92       -12.3610   -0.8780    0.6980 ho        1 MOL      0.358820
    199 O33       -10.7530   -1.4180   -4.2660 oh        1 MOL     -0.809497
    200 H93       -10.9450   -0.5770   -4.6750 ho        1 MOL      0.358820
    201 H94       -10.6920   -2.0380   -5.0000 ho        1 MOL      0.358820
@<TRIPOS>BOND
     1    1    2 1   
     2    1    4 1   
     3    1    5 1   
     4    1    6 1   
     5    2    3 2   
     6    2    7 1   
     7    7    8 1   
     8    7   15 1   
     9    8    9 1   
    10    8   11 1   
    11    8   16 1   
    12    9   10 2   
    13    9   19 1   
    14   11   12 1   
    15   11   17 1   
    16   11   18 1   
    17   12   13 1   
    18   12   14 1   
    19   19   20 1   
    20   19   27 1   
    21   20   21 1   
    22   20   23 1   
    23   20   28 1   
    24   21   22 2   
    25   21   38 1   
    26   23   24 1   
    27   23   25 1   
    28   23   29 1   
    29   24   26 1   
    30   24   30 1   
    31   24   31 1   
    32   25   32 1   
    33   25   33 1   
    34   25   34 1   
    35   26   35 1   
    36   26   36 1   
    37   26   37 1   
    38   38   39 1   
    39   38   46 1   
    40   39   40 1   
    41   39   42 1   
    42   39   47 1   
    43   40   41 2   
    44   40   50 1   
    45   42   43 1   
    46   42   48 1   
    47   42   49 1   
    48   43   44 1   
    49   43   45 1   
    50   50   51 1   
    51   50   54 1   
    52   51   52 1   
    53   51   55 1   
    54   51   56 1   
    55   52   53 2   
    56   52   57 1   
    57   57   58 1   
    58   57   65 1   
    59   58   59 1   
    60   58   61 1   
    61   58   66 1   
    62   59   60 2   
    63   59   69 1   
    64   61   62 1   
    65   61   67 1   
    66   61   68 1   
    67   62   63 1   
    68   62   64 1   
    69   69   70 1   
    70   69   73 1   
    71   70   71 1   
    72   70   74 1   
    73   70   75 1   
    74   71   72 2   
    75   71   76 1   
    76   76   77 1   
    77   76   85 1   
    78   77   78 1   
    79   77   80 1   
    80   77   86 1   
    81   78   79 2   
    82   78   93 1   
    83   80   81 1   
    84   80   87 1   
    85   80   88 1   
    86   81   82 1   
    87   81   89 1   
    88   81   90 1   
    89   82   83 1   
    90   82   84 2   
    91   83   91 1   
    92   83   92 1   
    93   93   94 1   
    94   93  100 1   
    95   94   95 1   
    96   94   97 1   
    97   94  101 1   
    98   95   96 2   
    99   95  109 1   
   100   97   98 1   
   101   97   99 1   
   102   97  102 1   
   103   98  103 1   
   104   98  104 1   
   105   98  105 1   
   106   99  106 1   
   107   99  107 1   
   108   99  108 1   
   109  109  110 1   
   110  109  117 1   
   111  110  111 1   
   112  110  113 1   
   113  110  118 1   
   114  111  112 2   
   115  111  123 1   
   116  113  114 1   
   117  113  119 1   
   118  113  120 1   
   119  114  115 1   
   120  114  116 2   
   121  115  121 1   
   122  115  122 1   
   123  123  124 1   
   124  123  135 1   
   125  124  125 1   
   126  124  127 1   
   127  124  136 1   
   128  125  126 2   
   129  125  144 1   
   130  127  128 1   
   131  127  137 1   
   132  127  138 1   
   133  128  129 ar  
   134  128  130 ar  
   135  129  131 ar  
   136  129  139 1   
   137  130  132 ar  
   138  130  140 1   
   139  131  133 ar  
   140  131  141 1   
   141  132  133 ar  
   142  132  142 1   
   143  133  134 1   
   144  134  143 1   
   145  144  145 1   
   146  144  153 1   
   147  145  146 1   
   148  145  148 1   
   149  145  154 1   
   150  146  147 2   
   151  146  159 1   
   152  148  149 1   
   153  148  155 1   
   154  148  156 1   
   155  149  150 1   
   156  149  157 1   
   157  149  158 1   
   158  150  151 1   
   159  150  152 1   
   160  159  160 1   
   161  159  168 1   
   162  160  161 1   
   163  160  163 1   
   164  160  169 1   
   165  161  162 2   
   166  161  174 1   
   167  163  164 1   
   168  163  170 1   
   169  163  171 1   
   170  164  165 1   
   171  164  172 1   
   172  164  173 1   
   173  165  166 1   
   174  165  167 1   
   175  174  175 1   
   176  174  179 1   
   177  175  176 1   
   178  175  177 1   
   179  175  178 1   
   180  181  183 1   
   181  181  185 1   
   182  182  184 1   
   183  182  186 1   
   184  187  188 1   
   185  187  189 1   
   186  190  191 1   
   187  190  192 1   
   188  193  194 1   
   189  193  195 1   
   190  196  197 1   
   191  196  198 1   
   192  199  200 1   
   193  199  201 1   
@<TRIPOS>SUBSTRUCTURE
     1 MOL         1 TEMP              0 ****  ****    0 ROOT
