@<TRIPOS>MOLECULE
MOL
  182   178     1     0     0
SMALL
resp


@<TRIPOS>ATOM
      1 C1         -1.8350   -4.7310    6.1680 c3        1 MOL     -0.327729
      2 C2         -1.7350   -3.9270    4.7990 c         1 MOL      0.716109
      3 O1         -2.6910   -3.4220    4.2380 o         1 MOL     -0.611591
      4 H1         -1.8390   -5.8020    5.9610 hc        1 MOL      0.089613
      5 H2         -0.9790   -4.4860    6.7980 hc        1 MOL      0.089613
      6 H3         -2.7560   -4.4580    6.6850 hc        1 MOL      0.089613
      7 N1         -0.5820   -3.8700    4.2170 n         1 MOL     -0.647532
      8 C3         -0.3420   -3.1560    2.9670 c3        1 MOL      0.208725
      9 C4         -0.9550   -3.9540    1.7220 c         1 MOL      0.636521
     10 O2         -0.7300   -5.1610    1.6360 o         1 MOL     -0.569991
     11 C5          1.1910   -2.9840    2.8300 c3        1 MOL     -0.035282
     12 C6          1.6860   -2.3170    1.5550 c         1 MOL      0.655363
     13 O3          2.7750   -1.8000    1.5640 o         1 MOL     -0.716964
     14 O4          1.0990   -2.4060    0.4710 o         1 MOL     -0.716964
     15 H4          0.2330   -4.2210    4.6990 hn        1 MOL      0.319066
     16 H5         -0.8400   -2.1820    2.9790 h1        1 MOL     -0.009867
     17 H6          1.6720   -3.9690    2.8760 hc        1 MOL      0.011343
     18 H7          1.4680   -2.3250    3.6470 hc        1 MOL      0.011343
     19 N2         -1.6860   -3.3390    0.8250 n         1 MOL     -0.339003
     20 C7         -2.3350   -4.0350   -0.2860 c3        1 MOL      0.025066
     21 C8         -1.3190   -4.7240   -1.3120 c         1 MOL      0.528727
     22 O5         -1.6930   -5.7090   -1.9240 o         1 MOL     -0.602172
     23 C9         -3.3780   -3.0780   -0.8170 c3        1 MOL     -0.006636
     24 C10        -4.1990   -3.7200   -1.9150 c3        1 MOL      0.012572
     25 C11        -5.3120   -2.8100   -2.3930 c3        1 MOL     -0.366250
     26 C12        -6.0240   -3.4620   -3.5690 c3        1 MOL      0.039668
     27 N3         -7.3070   -2.8130   -3.8800 n4        1 MOL     -0.164372
     28 H8         -1.9080   -2.3680    0.9430 hn        1 MOL      0.138130
     29 H9         -2.8380   -4.9130    0.1350 h1        1 MOL      0.094033
     30 H10        -2.9550   -2.2250   -1.3460 hc        1 MOL      0.037177
     31 H11        -4.0480   -2.7970   -0.0060 hc        1 MOL      0.037177
     32 H12        -4.6090   -4.6010   -1.4250 hc        1 MOL      0.047997
     33 H13        -3.5420   -3.9790   -2.7410 hc        1 MOL      0.047997
     34 H14        -5.0680   -1.8100   -2.7540 hc        1 MOL      0.119045
     35 H15        -6.0180   -2.8170   -1.5590 hc        1 MOL      0.119045
     36 H16        -6.1120   -4.4780   -3.1790 hx        1 MOL      0.075826
     37 H17        -5.3500   -3.4350   -4.4310 hx        1 MOL      0.075826
     38 H18        -7.9050   -3.3910   -4.4460 hn        1 MOL      0.252404
     39 H19        -7.7940   -2.4830   -3.0490 hn        1 MOL      0.252404
     40 H20        -7.1200   -1.8970   -4.2720 hn        1 MOL      0.252404
     41 N4         -0.0640   -4.3020   -1.4040 n         1 MOL     -0.241826
     42 C13         1.0060   -4.9760   -2.2010 c3        1 MOL      0.205233
     43 C14         2.2710   -5.3980   -1.4210 c         1 MOL      0.159084
     44 O6          3.0150   -6.3030   -1.9060 o         1 MOL     -0.489699
     45 C15         1.3640   -3.9780   -3.3410 c3        1 MOL     -0.564122
     46 C16         1.6240   -2.5800   -2.9250 c         1 MOL      0.927665
     47 O7          2.5370   -2.3210   -2.1290 o         1 MOL     -0.778264
     48 O8          0.8080   -1.6980   -3.2620 o         1 MOL     -0.778264
     49 H21         0.0870   -3.4570   -0.8750 hn        1 MOL      0.108893
     50 H22         0.7580   -5.8340   -2.8250 h1        1 MOL      0.118844
     51 H23         0.5900   -4.1070   -4.1060 hc        1 MOL      0.145507
     52 H24         2.2680   -4.2940   -3.8610 hc        1 MOL      0.145507
     53 N5          2.4770   -4.7890   -0.2780 n         1 MOL      0.198061
     54 C17         3.6830   -4.9560    0.5340 c3        1 MOL     -0.385708
     55 C18         4.8630   -4.0130    0.2840 c         1 MOL      0.722430
     56 O9          5.8200   -4.0650    1.0390 o         1 MOL     -0.616763
     57 H25         1.7330   -4.1770    0.0210 hn        1 MOL     -0.020131
     58 H26         4.0400   -5.9670    0.3520 h1        1 MOL      0.134798
     59 H27         3.4150   -4.7650    1.5810 h1        1 MOL      0.134798
     60 N6          4.8040   -3.1480   -0.7110 n         1 MOL     -0.124925
     61 C19         5.9270   -2.2670   -1.0280 c3        1 MOL     -0.241792
     62 C20         5.5620   -0.7570   -1.1210 c         1 MOL      0.752604
     63 O10         4.4080   -0.3700   -0.9150 o         1 MOL     -0.560121
     64 C21         6.4050   -2.8490   -2.3800 c3        1 MOL     -0.226736
     65 C22         6.9960   -4.2760   -2.2630 c         1 MOL      0.665510
     66 N7          8.1790   -4.3570   -1.6990 n         1 MOL     -0.844935
     67 O11         6.3370   -5.2260   -2.5820 o         1 MOL     -0.521898
     68 H28         3.9100   -3.0310   -1.1780 hn        1 MOL      0.204058
     69 H29         6.8220   -2.4350   -0.4190 h1        1 MOL      0.090108
     70 H30         7.1120   -2.1900   -2.8830 hc        1 MOL      0.058199
     71 H31         5.6270   -2.9720   -3.1330 hc        1 MOL      0.058199
     72 H32         8.5440   -3.5410   -1.2240 hn        1 MOL      0.387970
     73 H33         8.5450   -5.2960   -1.5950 hn        1 MOL      0.387970
     74 N8          6.5760    0.1390   -1.3050 n         1 MOL     -0.531836
     75 C23         6.5530    1.6180   -1.5380 c3        1 MOL     -0.050343
     76 C24         5.9870    2.3600   -0.3430 c         1 MOL      0.569963
     77 O12         6.4410    2.0170    0.7530 o         1 MOL     -0.506757
     78 H34         7.5150   -0.1620   -1.0920 hn        1 MOL      0.324507
     79 H35         6.0130    1.8910   -2.4420 h1        1 MOL      0.076518
     80 H36         7.5730    1.9290   -1.7470 h1        1 MOL      0.076518
     81 N9          5.0050    3.2500   -0.5010 n         1 MOL     -0.715062
     82 C25         4.4170    3.8760    0.6240 c3        1 MOL      0.559281
     83 C26         3.4750    2.8360    1.3050 c         1 MOL      0.335501
     84 O13         3.2840    1.7240    0.7940 o         1 MOL     -0.421150
     85 C27         3.6170    4.9540    0.0770 c3        1 MOL     -0.293023
     86 C28         4.2790    6.1180   -0.6090 ca        1 MOL      0.133766
     87 C29         5.5680    6.5440   -0.2660 ca        1 MOL     -0.174272
     88 C30         3.4500    6.7810   -1.6250 ca        1 MOL     -0.174272
     89 C31         6.0750    7.6840   -0.9930 ca        1 MOL     -0.303443
     90 C32         4.0510    7.7950   -2.4150 ca        1 MOL     -0.303443
     91 C33         5.3510    8.3260   -2.0490 ca        1 MOL      0.373011
     92 O14         5.9260    9.3740   -2.7250 oh        1 MOL     -0.505840
     93 H37         4.4790    3.2750   -1.3560 hn        1 MOL      0.330595
     94 H38         5.1750    4.1910    1.3300 h1        1 MOL     -0.009128
     95 H39         3.2190    5.3690    1.0040 hc        1 MOL      0.034825
     96 H40         2.8150    4.5580   -0.5430 hc        1 MOL      0.034825
     97 H41         6.1160    6.0560    0.5290 ha        1 MOL      0.158107
     98 H42         2.4190    6.4750   -1.7410 ha        1 MOL      0.158107
     99 H43         7.0150    8.0810   -0.6450 ha        1 MOL      0.169126
    100 H44         3.5670    8.2340   -3.2730 ha        1 MOL      0.169126
    101 H45         5.5120    9.6000   -3.5600 ho        1 MOL      0.386236
    102 N10         2.9150    3.1060    2.4890 n         1 MOL     -0.487888
    103 C34         1.9360    2.2800    3.2550 c3        1 MOL      0.170015
    104 C35         0.7160    1.6350    2.5020 c         1 MOL      0.160328
    105 O15         0.8170    0.7040    1.7050 o         1 MOL     -0.477726
    106 C36         2.7540    1.3270    4.2110 c3        1 MOL      0.325612
    107 C37         1.8340    0.9080    5.4660 c3        1 MOL     -0.052559
    108 C38         4.1150    1.9300    4.7300 c3        1 MOL     -0.158675
    109 C39         2.5520    0.0490    6.4430 c3        1 MOL     -0.000431
    110 H46         3.3690    3.9260    2.8560 hn        1 MOL      0.268496
    111 H47         1.4980    2.9990    3.9490 h1        1 MOL     -0.002960
    112 H48         3.0530    0.4510    3.6560 hc        1 MOL      0.001226
    113 H49         0.8440    0.6050    5.1540 hc        1 MOL     -0.019964
    114 H50         1.6210    1.8060    6.0340 hc        1 MOL     -0.019964
    115 H51         3.9090    2.6740    5.5030 hc        1 MOL      0.031927
    116 H52         4.7340    1.1440    5.1660 hc        1 MOL      0.031927
    117 H53         4.7000    2.3580    3.9240 hc        1 MOL      0.031927
    118 H54         3.1640   -0.7360    6.0050 hc        1 MOL      0.006698
    119 H55         3.1720    0.6320    7.1280 hc        1 MOL      0.006698
    120 H56         1.8490   -0.5050    7.0740 hc        1 MOL      0.006698
    121 N11        -0.5040    2.0200    2.8710 n         1 MOL     -0.249363
    122 C40        -1.6480    1.2010    2.5010 c3        1 MOL      0.118389
    123 C41        -2.3620    1.5760    1.2880 c         1 MOL      0.606500
    124 O16        -3.1420    0.8010    0.7300 o         1 MOL     -0.603265
    125 C42        -2.5950    1.1610    3.7250 c3        1 MOL      0.177271
    126 O17        -3.0160    2.4620    4.1080 oh        1 MOL     -0.625597
    127 H57        -0.5440    2.6870    3.6330 hn        1 MOL      0.238341
    128 H58        -1.3480    0.1640    2.3900 h1        1 MOL      0.077818
    129 H59        -2.0720    0.8710    4.6330 h1        1 MOL      0.037304
    130 H60        -3.4220    0.4640    3.5970 h1        1 MOL      0.037304
    131 H61        -3.5030    2.2690    4.9120 ho        1 MOL      0.420325
    132 N12        -2.2530    2.8480    0.8230 n         1 MOL     -0.501049
    133 C43        -3.1400    3.5200   -0.1740 c3        1 MOL      0.201296
    134 C44        -2.7030    3.0700   -1.6140 c         1 MOL      0.633414
    135 O18        -1.5430    3.1970   -2.0160 o         1 MOL     -0.573286
    136 C45        -3.0050    5.0010   -0.2880 c3        1 MOL     -0.412763
    137 H62        -1.6330    3.4820    1.2920 hn        1 MOL      0.261716
    138 H63        -4.2040    3.3520    0.0230 h1        1 MOL      0.079446
    139 H64        -3.7330    5.3980   -0.9900 hc        1 MOL      0.122333
    140 H65        -3.1560    5.4270    0.7050 hc        1 MOL      0.122333
    141 H66        -2.0740    5.2990   -0.7710 hc        1 MOL      0.122333
    142 N13        -3.5580    2.4570   -2.4740 n         1 MOL     -0.690531
    143 C46        -4.8580    1.9770   -2.2670 c3        1 MOL      0.387722
    144 C47        -5.8320    3.1500   -2.2730 c         1 MOL      0.487041
    145 O19        -5.7210    4.0080   -3.1420 o         1 MOL     -0.534672
    146 C48        -5.0720    0.8850   -3.3200 c3        1 MOL     -0.249430
    147 H67        -3.2030    2.2570   -3.4010 hn        1 MOL      0.358144
    148 H68        -4.9510    1.5140   -1.2840 h1        1 MOL     -0.028519
    149 H69        -5.1330    1.3370   -4.3080 hc        1 MOL      0.070451
    150 H70        -4.2580    0.1780   -3.2540 hc        1 MOL      0.070451
    151 H71        -6.0540    0.4760   -3.0650 hc        1 MOL      0.070451
    152 N14        -6.8680    3.1100   -1.4030 n         1 MOL     -0.437450
    153 C49        -7.1760    2.1290   -0.3480 c3        1 MOL     -0.269999
    154 C50        -7.7660    2.7400    0.9410 c         1 MOL      0.629455
    155 O20        -7.5200    2.1500    1.9640 o         1 MOL     -0.495477
    156 C51        -8.1710    1.1320   -0.8460 c3        1 MOL      0.012664
    157 C52        -8.0930   -0.1850   -0.1060 c3        1 MOL     -0.012154
    158 C53        -9.1430   -1.1970   -0.6860 c         1 MOL      0.616502
    159 O21        -8.7190   -1.8700   -1.6290 o         1 MOL     -0.661663
    160 O22       -10.3340   -1.2240   -0.2450 o         1 MOL     -0.661663
    161 H72        -7.4980    3.9050   -1.3950 hn        1 MOL      0.261846
    162 H73        -6.2830    1.6070   -0.0180 h1        1 MOL      0.176171
    163 H74        -7.9750    0.9410   -1.8980 hc        1 MOL      0.021007
    164 H75        -9.1930    1.4980   -0.7720 hc        1 MOL      0.021007
    165 H76        -8.2570   -0.0870    0.9630 hc        1 MOL      0.002568
    166 H77        -7.1420   -0.6740   -0.3180 hc        1 MOL      0.002568
    167 N15        -8.3350    4.0080    0.8710 n         1 MOL     -0.500726
    168 C54        -8.4470    4.9240    2.0840 c3        1 MOL      0.013775
    169 H78        -7.5630    5.5600    2.1410 h1        1 MOL      0.060477
    170 H79        -9.3370    5.5470    1.9890 h1        1 MOL      0.060477
    171 H80        -8.5190    4.3220    2.9900 h1        1 MOL      0.060477
    172 H81        -8.4060    4.4150   -0.0480 hn        1 MOL      0.318438
    173 Ca1         1.8430   -0.2320   -0.8170 Ca        1 MOL      1.788664
    174 O23        -1.0000   -0.2670   -0.9330 oh        1 MOL     -0.876125
    175 O24         0.9830    2.6560   -0.9080 oh        1 MOL     -0.876125
    176 H82        -1.3680   -0.7360   -1.6770 ho        1 MOL      0.431328
    177 H83         0.2090    2.7260   -1.4640 ho        1 MOL      0.431328
    178 H84        -1.7600    0.1010   -0.4800 ho        1 MOL      0.431328
    179 H85         0.7740    3.1580   -0.1270 ho        1 MOL      0.431328
    180 O25         2.7610    0.9190   -2.9570 oh        1 MOL     -0.876125
    181 H86         3.0070    1.8370   -2.8080 ho        1 MOL      0.431328
    182 H87         3.2630    0.6670   -3.7420 ho        1 MOL      0.431328
@<TRIPOS>BOND
     1    1    2 1   
     2    1    4 1   
     3    1    5 1   
     4    1    6 1   
     5    2    3 2   
     6    2    7 1   
     7    7    8 1   
     8    7   15 1   
     9    8    9 1   
    10    8   11 1   
    11    8   16 1   
    12    9   10 2   
    13    9   19 1   
    14   11   12 1   
    15   11   17 1   
    16   11   18 1   
    17   12   13 1   
    18   12   14 1   
    19   19   20 1   
    20   19   28 1   
    21   20   21 1   
    22   20   23 1   
    23   20   29 1   
    24   21   22 2   
    25   21   41 1   
    26   23   24 1   
    27   23   30 1   
    28   23   31 1   
    29   24   25 1   
    30   24   32 1   
    31   24   33 1   
    32   25   26 1   
    33   25   34 1   
    34   25   35 1   
    35   26   27 1   
    36   26   36 1   
    37   26   37 1   
    38   27   38 1   
    39   27   39 1   
    40   27   40 1   
    41   41   42 1   
    42   41   49 1   
    43   42   43 1   
    44   42   45 1   
    45   42   50 1   
    46   43   44 2   
    47   43   53 1   
    48   45   46 1   
    49   45   51 1   
    50   45   52 1   
    51   46   47 1   
    52   46   48 1   
    53   53   54 1   
    54   53   57 1   
    55   54   55 1   
    56   54   58 1   
    57   54   59 1   
    58   55   56 2   
    59   55   60 1   
    60   60   61 1   
    61   60   68 1   
    62   61   62 1   
    63   61   64 1   
    64   61   69 1   
    65   62   63 2   
    66   62   74 1   
    67   64   65 1   
    68   64   70 1   
    69   64   71 1   
    70   65   66 1   
    71   65   67 2   
    72   66   72 1   
    73   66   73 1   
    74   74   75 1   
    75   74   78 1   
    76   75   76 1   
    77   75   79 1   
    78   75   80 1   
    79   76   77 2   
    80   76   81 1   
    81   81   82 1   
    82   81   93 1   
    83   82   83 1   
    84   82   85 1   
    85   82   94 1   
    86   83   84 2   
    87   83  102 1   
    88   85   86 1   
    89   85   95 1   
    90   85   96 1   
    91   86   87 ar  
    92   86   88 ar  
    93   87   89 ar  
    94   87   97 1   
    95   88   90 ar  
    96   88   98 1   
    97   89   91 ar  
    98   89   99 1   
    99   90   91 ar  
   100   90  100 1   
   101   91   92 1   
   102   92  101 1   
   103  102  103 1   
   104  102  110 1   
   105  103  104 1   
   106  103  106 1   
   107  103  111 1   
   108  104  105 2   
   109  104  121 1   
   110  106  107 1   
   111  106  108 1   
   112  106  112 1   
   113  107  109 1   
   114  107  113 1   
   115  107  114 1   
   116  108  115 1   
   117  108  116 1   
   118  108  117 1   
   119  109  118 1   
   120  109  119 1   
   121  109  120 1   
   122  121  122 1   
   123  121  127 1   
   124  122  123 1   
   125  122  125 1   
   126  122  128 1   
   127  123  124 2   
   128  123  132 1   
   129  125  126 1   
   130  125  129 1   
   131  125  130 1   
   132  126  131 1   
   133  132  133 1   
   134  132  137 1   
   135  133  134 1   
   136  133  136 1   
   137  133  138 1   
   138  134  135 2   
   139  134  142 1   
   140  136  139 1   
   141  136  140 1   
   142  136  141 1   
   143  142  143 1   
   144  142  147 1   
   145  143  144 1   
   146  143  146 1   
   147  143  148 1   
   148  144  145 2   
   149  144  152 1   
   150  146  149 1   
   151  146  150 1   
   152  146  151 1   
   153  152  153 1   
   154  152  161 1   
   155  153  154 1   
   156  153  156 1   
   157  153  162 1   
   158  154  155 2   
   159  154  167 1   
   160  156  157 1   
   161  156  163 1   
   162  156  164 1   
   163  157  158 1   
   164  157  165 1   
   165  157  166 1   
   166  158  159 1   
   167  158  160 1   
   168  167  168 1   
   169  167  172 1   
   170  168  169 1   
   171  168  170 1   
   172  168  171 1   
   173  174  176 1   
   174  174  178 1   
   175  175  177 1   
   176  175  179 1   
   177  180  181 1   
   178  180  182 1   
@<TRIPOS>SUBSTRUCTURE
     1 MOL         1 TEMP              0 ****  ****    0 ROOT
