@<TRIPOS>MOLECULE
MOL
  182   178     1     0     0
SMALL
resp


@<TRIPOS>ATOM
      1 C1         -0.0530   -3.9300    6.0370 c3        1 MOL     -0.368216
      2 C2          0.2510   -3.8360    4.5100 c         1 MOL      0.722054
      3 O1         -0.5830   -4.1680    3.6560 o         1 MOL     -0.583337
      4 H1         -1.0090   -4.4330    6.1870 hc        1 MOL      0.105200
      5 H2          0.7360   -4.4970    6.5300 hc        1 MOL      0.105200
      6 H3         -0.1000   -2.9270    6.4610 hc        1 MOL      0.105200
      7 N1          1.4390   -3.4450    4.2260 n         1 MOL     -0.523695
      8 C3          1.8110   -3.1630    2.8130 c3        1 MOL     -0.023939
      9 C4          1.8450   -4.4200    1.8900 c         1 MOL      0.528872
     10 O2          2.0340   -5.5010    2.4280 o         1 MOL     -0.519335
     11 C5          3.0840   -2.3190    2.8890 c3        1 MOL      0.210220
     12 C6          3.5000   -1.6490    1.5790 c         1 MOL      0.125151
     13 O3          4.1450   -0.5840    1.7050 o         1 MOL     -0.552318
     14 O4          3.0460   -2.0130    0.4470 o         1 MOL     -0.552318
     15 H4          2.0350   -3.2670    5.0240 hn        1 MOL      0.304378
     16 H5          0.9820   -2.6010    2.3950 h1        1 MOL     -0.085777
     17 H6          3.9030   -2.8840    3.3460 hc        1 MOL      0.024818
     18 H7          2.8270   -1.5240    3.5820 hc        1 MOL      0.024818
     19 N2          1.6700   -4.2540    0.5460 n         1 MOL     -0.304500
     20 C7          1.8570   -5.3300   -0.5030 c3        1 MOL      0.017813
     21 C8          3.2120   -5.3120   -1.1510 c         1 MOL      0.449449
     22 O5          3.8460   -6.3820   -1.4100 o         1 MOL     -0.563877
     23 C9          0.7400   -5.2960   -1.5710 c3        1 MOL      0.121284
     24 C10        -0.5370   -6.0960   -1.1400 c3        1 MOL     -0.154123
     25 C11        -1.6120   -6.1480   -2.2180 c3        1 MOL      0.350867
     26 C12        -2.7270   -7.1650   -1.9650 c3        1 MOL     -0.097038
     27 N3         -3.6820   -7.1740   -3.0980 n4        1 MOL     -0.263622
     28 H8          1.3550   -3.3660    0.1680 hn        1 MOL      0.368187
     29 H9          1.8410   -6.3290   -0.0540 h1        1 MOL      0.077102
     30 H10         1.0780   -5.7140   -2.5210 hc        1 MOL     -0.028728
     31 H11         0.5840   -4.2280   -1.7510 hc        1 MOL     -0.028728
     32 H12        -0.9010   -5.6790   -0.2050 hc        1 MOL      0.028408
     33 H13        -0.0670   -7.0530   -0.9150 hc        1 MOL      0.028408
     34 H14        -1.0680   -6.4540   -3.1130 hc        1 MOL     -0.064269
     35 H15        -1.9890   -5.1540   -2.4460 hc        1 MOL     -0.064269
     36 H16        -3.2490   -6.7870   -1.0730 hx        1 MOL      0.099785
     37 H17        -2.2570   -8.1440   -1.8450 hx        1 MOL      0.099785
     38 H18        -3.3190   -7.4630   -3.9970 hn        1 MOL      0.250718
     39 H19        -4.3170   -7.9570   -3.0730 hn        1 MOL      0.250718
     40 H20        -4.2550   -6.3450   -3.0620 hn        1 MOL      0.250718
     41 N4          3.8730   -4.1460   -1.2900 n         1 MOL     -0.211281
     42 C13         5.2200   -4.1130   -2.0100 c3        1 MOL     -0.110777
     43 C14         6.2990   -3.3900   -1.1730 c         1 MOL      0.449288
     44 O6          7.4100   -3.2170   -1.7190 o         1 MOL     -0.528795
     45 C15         4.8950   -3.5240   -3.3970 c3        1 MOL     -0.236503
     46 C16         4.4190   -2.0660   -3.3290 c         1 MOL      0.785679
     47 O7          4.3140   -1.5540   -2.1850 o         1 MOL     -0.735216
     48 O8          4.1000   -1.5280   -4.4110 o         1 MOL     -0.735216
     49 H21         3.4240   -3.2840   -1.0240 hn        1 MOL      0.045388
     50 H22         5.5620   -5.1140   -2.2810 h1        1 MOL      0.145075
     51 H23         4.1110   -4.1100   -3.8870 hc        1 MOL      0.095204
     52 H24         5.7510   -3.4900   -4.0730 hc        1 MOL      0.095204
     53 N5          5.9910   -3.0420    0.0820 n         1 MOL     -0.145604
     54 C17         7.0470   -2.5060    0.9760 c3        1 MOL     -0.401235
     55 C18         7.5730   -1.1150    0.7780 c         1 MOL      0.743371
     56 O9          8.3140   -0.5720    1.5370 o         1 MOL     -0.574155
     57 H25         5.0890   -3.4100    0.3410 hn        1 MOL      0.228680
     58 H26         7.8540   -3.2500    0.9840 h1        1 MOL      0.159669
     59 H27         6.6020   -2.5510    1.9640 h1        1 MOL      0.159669
     60 N6          7.1360   -0.4720   -0.3450 n         1 MOL     -0.337344
     61 C19         7.4170    0.9640   -0.5780 c3        1 MOL     -0.220122
     62 C20         6.3230    1.9280   -0.0310 c         1 MOL      0.757162
     63 O10         5.1130    1.6080   -0.1950 o         1 MOL     -0.636958
     64 C21         7.5720    1.1140   -2.0650 c3        1 MOL     -0.145588
     65 C22         8.0210    2.4960   -2.6250 c         1 MOL      0.625778
     66 N7          8.2840    2.5400   -3.9280 n         1 MOL     -0.819082
     67 O11         8.1020    3.5180   -1.9390 o         1 MOL     -0.527180
     68 H28         6.6100   -1.0910   -0.9500 hn        1 MOL      0.233596
     69 H29         8.3940    1.2080   -0.1710 h1        1 MOL      0.127410
     70 H30         6.6490    0.7570   -2.5240 hc        1 MOL      0.075872
     71 H31         8.2970    0.3810   -2.4300 hc        1 MOL      0.075872
     72 H32         8.1630    1.6840   -4.4450 hn        1 MOL      0.378990
     73 H33         8.5190    3.3890   -4.4360 hn        1 MOL      0.378990
     74 N8          6.7550    3.1150    0.5420 n         1 MOL     -0.503945
     75 C23         6.0090    4.3900    0.4900 c3        1 MOL      0.035820
     76 C24         4.6480    4.3640    1.2370 c         1 MOL      0.644411
     77 O12         4.6580    4.1860    2.4440 o         1 MOL     -0.519195
     78 H34         7.7560    3.1940    0.6240 hn        1 MOL      0.316843
     79 H35         5.8970    4.6590   -0.5560 h1        1 MOL      0.056103
     80 H36         6.5670    5.2010    0.9630 h1        1 MOL      0.056103
     81 N9          3.4720    4.5770    0.5570 n         1 MOL     -0.843602
     82 C25         2.1390    4.4720    1.1730 c3        1 MOL      0.835187
     83 C26         1.6770    2.9950    1.3840 c         1 MOL      0.153816
     84 O13         2.3400    2.1580    0.8480 o         1 MOL     -0.399656
     85 C27         1.1430    5.2170    0.2750 c3        1 MOL     -0.367607
     86 C28         1.4390    6.6680   -0.0060 ca        1 MOL      0.014972
     87 C29         0.8940    7.2040   -1.1530 ca        1 MOL     -0.082566
     88 C30         2.2040    7.5180    0.8350 ca        1 MOL     -0.082566
     89 C31         1.2420    8.4990   -1.6060 ca        1 MOL     -0.315314
     90 C32         2.5250    8.8690    0.4300 ca        1 MOL     -0.315314
     91 C33         2.0000    9.2910   -0.7880 ca        1 MOL      0.352892
     92 O14         2.2410   10.6140   -1.0440 oh        1 MOL     -0.446076
     93 H37         3.5330    4.7250   -0.4440 hn        1 MOL      0.362109
     94 H38         2.1070    5.0040    2.1190 h1        1 MOL     -0.062440
     95 H39         0.1780    5.1590    0.7750 hc        1 MOL      0.084585
     96 H40         1.1310    4.6820   -0.6720 hc        1 MOL      0.084585
     97 H41         0.2810    6.6560   -1.8550 ha        1 MOL      0.112990
     98 H42         2.6220    7.1210    1.7460 ha        1 MOL      0.112990
     99 H43         0.7470    8.8980   -2.4790 ha        1 MOL      0.179297
    100 H44         3.0450    9.5440    1.0850 ha        1 MOL      0.179297
    101 H45         1.7870   10.8310   -1.8580 ho        1 MOL      0.332526
    102 N10         0.5660    2.7150    2.1460 n         1 MOL     -0.627028
    103 C34         0.0690    1.4160    2.6210 c3        1 MOL      0.244666
    104 C35        -0.2030    0.3790    1.5340 c         1 MOL      0.212859
    105 O15         0.7250   -0.1200    0.9280 o         1 MOL     -0.171150
    106 C36         1.0230    0.8580    3.6670 c3        1 MOL      0.478397
    107 C37         0.3630   -0.3820    4.4150 c3        1 MOL     -0.398593
    108 C38         1.5410    1.8900    4.6580 c3        1 MOL     -0.376607
    109 C39        -0.8310   -0.0530    5.2920 c3        1 MOL      0.000302
    110 H46         0.0920    3.5780    2.3760 hn        1 MOL      0.304500
    111 H47        -0.8290    1.5670    3.2150 h1        1 MOL      0.010591
    112 H48         1.9120    0.4690    3.1660 hc        1 MOL     -0.009505
    113 H49         1.1200   -0.8540    5.0440 hc        1 MOL      0.085461
    114 H50         0.1000   -1.0560    3.6020 hc        1 MOL      0.085461
    115 H51         0.6420    2.2170    5.1800 hc        1 MOL      0.089041
    116 H52         2.2460    1.2890    5.2210 hc        1 MOL      0.089041
    117 H53         2.1250    2.7340    4.3040 hc        1 MOL      0.089041
    118 H54        -0.8970    0.8980    5.8320 hc        1 MOL      0.015219
    119 H55        -1.7020   -0.1610    4.6380 hc        1 MOL      0.015219
    120 H56        -1.0010   -0.8150    6.0500 hc        1 MOL      0.015219
    121 N11        -1.4780   -0.0270    1.2450 n         1 MOL     -0.377282
    122 C40        -1.7940   -1.0040    0.2550 c3        1 MOL     -0.138128
    123 C41        -3.2280   -1.0830   -0.2650 c         1 MOL      0.635187
    124 O16        -3.5820   -1.6160   -1.3170 o         1 MOL     -0.564109
    125 C42        -1.6440   -2.4080    0.7820 c3        1 MOL      0.518991
    126 O17        -2.3410   -2.7290    1.9800 oh        1 MOL     -0.624974
    127 H57        -2.2030    0.3380    1.8430 hn        1 MOL      0.250064
    128 H58        -1.1550   -0.7440   -0.5810 h1        1 MOL      0.079215
    129 H59        -0.5560   -2.5340    0.8640 h1        1 MOL     -0.131892
    130 H60        -1.9270   -3.1490    0.0310 h1        1 MOL     -0.131892
    131 H61        -1.7760   -3.3360    2.4670 ho        1 MOL      0.399180
    132 N12        -4.1110   -0.2550    0.3000 n         1 MOL     -0.621945
    133 C43        -5.5050    0.0150   -0.1490 c3        1 MOL      0.241241
    134 C44        -5.5080    0.7980   -1.5120 c         1 MOL      0.570402
    135 O18        -4.5950    1.5310   -1.9400 o         1 MOL     -0.547288
    136 C45        -6.1580    0.4430    1.1700 c3        1 MOL     -0.470112
    137 H62        -3.8640    0.0880    1.2260 hn        1 MOL      0.327860
    138 H63        -5.9470   -0.9680   -0.3620 h1        1 MOL      0.085338
    139 H64        -7.2300    0.4770    0.9830 hc        1 MOL      0.143388
    140 H65        -5.9940   -0.2870    1.9630 hc        1 MOL      0.143388
    141 H66        -5.7660    1.4310    1.3910 hc        1 MOL      0.143388
    142 N13        -6.5820    0.6670   -2.3350 n         1 MOL     -0.566011
    143 C46        -7.8910    0.1000   -2.1120 c3        1 MOL      0.375668
    144 C47        -9.0400    0.9140   -2.7320 c         1 MOL      0.287884
    145 O19        -8.9200    1.3690   -3.8830 o         1 MOL     -0.537232
    146 C48        -7.9400   -1.2880   -2.7080 c3        1 MOL     -0.282211
    147 H67        -6.4610    1.0550   -3.2530 hn        1 MOL      0.323086
    148 H68        -8.1240    0.0050   -1.0500 h1        1 MOL     -0.057718
    149 H69        -8.8870   -1.8310   -2.7100 hc        1 MOL      0.077817
    150 H70        -7.5990   -1.1460   -3.7410 hc        1 MOL      0.077817
    151 H71        -7.1290   -1.8260   -2.2170 hc        1 MOL      0.077817
    152 N14       -10.1770    1.1480   -2.1430 n         1 MOL     -0.174466
    153 C49       -10.5810    0.8350   -0.7520 c3        1 MOL     -0.283979
    154 C50        -9.9590    1.8680    0.1930 c         1 MOL      0.525700
    155 O20        -9.4220    1.4510    1.2230 o         1 MOL     -0.529264
    156 C51       -12.0770    0.7100   -0.5690 c3        1 MOL      0.200229
    157 C52       -12.6920    0.2230    0.7800 c3        1 MOL     -0.334253
    158 C53       -14.2010   -0.0370    0.7230 c         1 MOL      0.734041
    159 O21       -14.6560   -0.9290   -0.0580 o         1 MOL     -0.650657
    160 O22       -14.9800    0.6370    1.4410 o         1 MOL     -0.650657
    161 H72       -10.8510    1.6690   -2.6760 hn        1 MOL      0.247996
    162 H73       -10.2040   -0.1590   -0.5240 h1        1 MOL      0.157857
    163 H74       -12.3960    0.0730   -1.4080 hc        1 MOL     -0.020606
    164 H75       -12.5250    1.6780   -0.7930 hc        1 MOL     -0.020606
    165 H76       -12.3410    0.9930    1.4680 hc        1 MOL      0.074586
    166 H77       -12.1640   -0.6920    1.0410 hc        1 MOL      0.074586
    167 N15        -9.9080    3.1550   -0.1710 n         1 MOL     -0.284802
    168 C54        -9.1640    4.1510    0.5950 c3        1 MOL     -0.187670
    169 H78        -9.3460    4.0000    1.6590 h1        1 MOL      0.099184
    170 H79        -8.1000    4.0450    0.3910 h1        1 MOL      0.099184
    171 H80        -9.4930    5.1500    0.3100 h1        1 MOL      0.099184
    172 H81       -10.2530    3.3580   -1.1000 hn        1 MOL      0.253941
    173 Ca1         2.9570    0.1790   -0.8710 Ca        1 MOL      1.688690
    174 O23         3.8190    1.5710   -2.9430 oh        1 MOL     -0.814186
    175 H82         4.0420    1.0290   -3.6950 ho        1 MOL      0.403687
    176 H83         4.1770    2.4380   -3.1540 ho        1 MOL      0.403687
    177 O24         0.7290   -1.8120   -1.9230 oh        1 MOL     -0.814186
    178 H84         1.0880   -1.4150   -2.7120 ho        1 MOL      0.403687
    179 H85        -0.1150   -2.1570   -2.1900 ho        1 MOL      0.403687
    180 O25         0.8260    1.4300   -2.0170 oh        1 MOL     -0.814186
    181 H86         0.3960    1.9620   -1.3440 ho        1 MOL      0.403687
    182 H87         0.1680    0.7860   -2.2740 ho        1 MOL      0.403687
@<TRIPOS>BOND
     1    1    2 1   
     2    1    4 1   
     3    1    5 1   
     4    1    6 1   
     5    2    3 2   
     6    2    7 1   
     7    7    8 1   
     8    7   15 1   
     9    8    9 1   
    10    8   11 1   
    11    8   16 1   
    12    9   10 2   
    13    9   19 1   
    14   11   12 1   
    15   11   17 1   
    16   11   18 1   
    17   12   13 1   
    18   12   14 1   
    19   19   20 1   
    20   19   28 1   
    21   20   21 1   
    22   20   23 1   
    23   20   29 1   
    24   21   22 2   
    25   21   41 1   
    26   23   24 1   
    27   23   30 1   
    28   23   31 1   
    29   24   25 1   
    30   24   32 1   
    31   24   33 1   
    32   25   26 1   
    33   25   34 1   
    34   25   35 1   
    35   26   27 1   
    36   26   36 1   
    37   26   37 1   
    38   27   38 1   
    39   27   39 1   
    40   27   40 1   
    41   41   42 1   
    42   41   49 1   
    43   42   43 1   
    44   42   45 1   
    45   42   50 1   
    46   43   44 2   
    47   43   53 1   
    48   45   46 1   
    49   45   51 1   
    50   45   52 1   
    51   46   47 1   
    52   46   48 1   
    53   53   54 1   
    54   53   57 1   
    55   54   55 1   
    56   54   58 1   
    57   54   59 1   
    58   55   56 2   
    59   55   60 1   
    60   60   61 1   
    61   60   68 1   
    62   61   62 1   
    63   61   64 1   
    64   61   69 1   
    65   62   63 2   
    66   62   74 1   
    67   64   65 1   
    68   64   70 1   
    69   64   71 1   
    70   65   66 1   
    71   65   67 2   
    72   66   72 1   
    73   66   73 1   
    74   74   75 1   
    75   74   78 1   
    76   75   76 1   
    77   75   79 1   
    78   75   80 1   
    79   76   77 2   
    80   76   81 1   
    81   81   82 1   
    82   81   93 1   
    83   82   83 1   
    84   82   85 1   
    85   82   94 1   
    86   83   84 2   
    87   83  102 1   
    88   85   86 1   
    89   85   95 1   
    90   85   96 1   
    91   86   87 ar  
    92   86   88 ar  
    93   87   89 ar  
    94   87   97 1   
    95   88   90 ar  
    96   88   98 1   
    97   89   91 ar  
    98   89   99 1   
    99   90   91 ar  
   100   90  100 1   
   101   91   92 1   
   102   92  101 1   
   103  102  103 1   
   104  102  110 1   
   105  103  104 1   
   106  103  106 1   
   107  103  111 1   
   108  104  105 2   
   109  104  121 1   
   110  106  107 1   
   111  106  108 1   
   112  106  112 1   
   113  107  109 1   
   114  107  113 1   
   115  107  114 1   
   116  108  115 1   
   117  108  116 1   
   118  108  117 1   
   119  109  118 1   
   120  109  119 1   
   121  109  120 1   
   122  121  122 1   
   123  121  127 1   
   124  122  123 1   
   125  122  125 1   
   126  122  128 1   
   127  123  124 2   
   128  123  132 1   
   129  125  126 1   
   130  125  129 1   
   131  125  130 1   
   132  126  131 1   
   133  132  133 1   
   134  132  137 1   
   135  133  134 1   
   136  133  136 1   
   137  133  138 1   
   138  134  135 2   
   139  134  142 1   
   140  136  139 1   
   141  136  140 1   
   142  136  141 1   
   143  142  143 1   
   144  142  147 1   
   145  143  144 1   
   146  143  146 1   
   147  143  148 1   
   148  144  145 2   
   149  144  152 1   
   150  146  149 1   
   151  146  150 1   
   152  146  151 1   
   153  152  153 1   
   154  152  161 1   
   155  153  154 1   
   156  153  156 1   
   157  153  162 1   
   158  154  155 2   
   159  154  167 1   
   160  156  157 1   
   161  156  163 1   
   162  156  164 1   
   163  157  158 1   
   164  157  165 1   
   165  157  166 1   
   166  158  159 1   
   167  158  160 1   
   168  167  168 1   
   169  167  172 1   
   170  168  169 1   
   171  168  170 1   
   172  168  171 1   
   173  174  175 1   
   174  174  176 1   
   175  177  178 1   
   176  177  179 1   
   177  180  181 1   
   178  180  182 1   
@<TRIPOS>SUBSTRUCTURE
     1 MOL         1 TEMP              0 ****  ****    0 ROOT
