@<TRIPOS>MOLECULE
MOL
  184   179     1     0     0
SMALL
resp


@<TRIPOS>ATOM
      1 C1         -3.0390   -1.9430   -3.6410 c3        1 MOL     -0.235088
      2 C2         -4.3750   -1.2710   -3.3540 c         1 MOL      0.668477
      3 O1         -4.3030   -0.5270   -2.3610 o         1 MOL     -0.585601
      4 H1         -2.2960   -1.1840   -3.8840 hc        1 MOL      0.049283
      5 H2         -2.7150   -2.4990   -2.7610 hc        1 MOL      0.049283
      6 H3         -3.1490   -2.6270   -4.4830 hc        1 MOL      0.049283
      7 N1         -5.4720   -1.4610   -4.0330 n         1 MOL     -0.613582
      8 C3         -6.7520   -0.8650   -3.7270 c3        1 MOL      0.319768
      9 C4         -7.1490   -1.0040   -2.2250 c         1 MOL      0.727376
     10 O2         -6.9490   -2.0690   -1.6770 o         1 MOL     -0.624797
     11 C5         -7.7690   -1.2450   -4.7780 c3        1 MOL     -0.278036
     12 C6         -9.1540   -0.7660   -4.6020 c         1 MOL      0.710789
     13 O3        -10.0000   -1.3850   -5.3290 o         1 MOL     -0.730198
     14 O4         -9.5040    0.0490   -3.7070 o         1 MOL     -0.730198
     15 H4         -5.4180   -2.0470   -4.8560 hn        1 MOL      0.305232
     16 H5         -6.5590    0.2010   -3.8750 h1        1 MOL     -0.024433
     17 H6         -7.8680   -2.3350   -4.7820 hc        1 MOL      0.033220
     18 H7         -7.4520   -0.8610   -5.7470 hc        1 MOL      0.033220
     19 N2         -7.5580    0.0230   -1.5310 n         1 MOL     -0.678394
     20 C7         -7.8460    0.0070   -0.1280 c3        1 MOL      0.582781
     21 C8         -6.5730   -0.4000    0.6670 c         1 MOL      0.408719
     22 O5         -5.5460    0.2370    0.4390 o         1 MOL     -0.501727
     23 C9         -8.4170    1.3760    0.1830 c3        1 MOL     -0.504361
     24 H8         -7.6420    0.8700   -2.0760 hn        1 MOL      0.290105
     25 H9         -8.6030   -0.7050    0.1740 h1        1 MOL     -0.040799
     26 H10        -7.8260    2.2450   -0.0970 hc        1 MOL      0.120359
     27 H11        -9.2340    1.3590   -0.5460 hc        1 MOL      0.120359
     28 H12        -8.7460    1.4000    1.2270 hc        1 MOL      0.120359
     29 N3         -6.6220   -1.3660    1.5780 n         1 MOL     -0.715813
     30 C10        -5.4600   -2.1830    2.0430 c3        1 MOL      0.493498
     31 C11        -4.7100   -1.5710    3.1750 c         1 MOL      0.318557
     32 O6         -4.3390   -2.3300    4.1130 o         1 MOL     -0.488990
     33 C12        -5.7480   -3.6790    2.1090 c3        1 MOL     -0.299129
     34 C13        -4.5080   -4.5760    2.3260 c         1 MOL      0.617444
     35 O7         -3.3940   -4.2170    1.8230 o         1 MOL     -0.654871
     36 O8         -4.6680   -5.6260    2.9910 o         1 MOL     -0.654871
     37 H13        -7.4530   -1.9230    1.6820 hn        1 MOL      0.309915
     38 H14        -4.7760   -2.0840    1.2050 h1        1 MOL      0.051362
     39 H15        -6.2460   -4.0350    1.2070 hc        1 MOL      0.057334
     40 H16        -6.4210   -3.7520    2.9570 hc        1 MOL      0.057334
     41 N4         -4.4620   -0.2510    3.1540 n         1 MOL     -0.325172
     42 C14        -3.6730    0.4680    4.0780 c3        1 MOL     -0.007530
     43 C15        -3.7350    1.9730    3.8280 c         1 MOL      0.525772
     44 O9         -4.5700    2.5970    3.1720 o         1 MOL     -0.504076
     45 H17        -4.7600    0.1360    2.2720 hn        1 MOL      0.278289
     46 H18        -2.6710    0.0600    4.0000 h1        1 MOL      0.045460
     47 H19        -3.8890    0.2610    5.1210 h1        1 MOL      0.045460
     48 N5         -2.5820    2.5880    4.1440 n         1 MOL     -0.426332
     49 C16        -2.1580    3.9790    3.8460 c3        1 MOL      0.144691
     50 C17        -1.9610    4.1000    2.3550 c         1 MOL      0.551552
     51 O10        -1.5220    3.1120    1.7060 o         1 MOL     -0.458581
     52 C18        -0.8650    4.2870    4.6170 c3        1 MOL     -0.473863
     53 C19        -1.0490    4.3340    6.1290 c         1 MOL      0.823682
     54 N6         -1.0780    3.1720    6.7070 n         1 MOL     -0.896734
     55 O11        -1.2060    5.3090    6.8130 o         1 MOL     -0.591865
     56 H20        -1.8270    1.9870    4.4410 hn        1 MOL      0.203505
     57 H21        -2.8970    4.7290    4.1480 h1        1 MOL      0.054520
     58 H22        -0.4370    5.2690    4.3970 hc        1 MOL      0.131972
     59 H23        -0.0540    3.6020    4.3960 hc        1 MOL      0.131972
     60 H24        -0.8690    2.3480    6.1730 hn        1 MOL      0.392263
     61 H25        -1.2400    3.1110    7.6940 hn        1 MOL      0.392263
     62 N7         -2.1140    5.2720    1.7280 n         1 MOL     -0.485169
     63 C20        -1.8390    5.5560    0.3290 c3        1 MOL     -0.122954
     64 C21        -0.3440    5.5750    0.0100 c         1 MOL      0.543587
     65 O12         0.4980    5.0620    0.7370 o         1 MOL     -0.435240
     66 H26        -2.2620    6.0440    2.3600 hn        1 MOL      0.293891
     67 H27        -2.3120    6.5250    0.1140 h1        1 MOL      0.119427
     68 H28        -2.2530    4.7690   -0.2940 h1        1 MOL      0.119427
     69 N8         -0.0350    6.3070   -1.0530 n         1 MOL     -0.224260
     70 C22         1.3880    6.6420   -1.3900 c3        1 MOL     -0.789148
     71 C23         2.2720    5.4760   -1.9190 c         1 MOL      0.871337
     72 O13         3.4740    5.6100   -2.1730 o         1 MOL     -0.622308
     73 C24         1.4650    7.8130   -2.4330 c3        1 MOL      0.625150
     74 C25         0.6880    7.6440   -3.6950 c3        1 MOL     -0.400244
     75 O14         0.9870    8.9460   -1.8450 oh        1 MOL     -0.652608
     76 H29        -0.7280    6.7050   -1.6750 hn        1 MOL      0.191886
     77 H30         1.8500    7.0630   -0.5030 h1        1 MOL      0.281322
     78 H31         2.5040    7.9500   -2.7510 h1        1 MOL      0.020368
     79 H32         0.0390    8.7920   -1.7720 ho        1 MOL      0.393272
     80 H33        -0.3630    7.8070   -3.4430 hc        1 MOL      0.094422
     81 H34         0.8980    8.3930   -4.4600 hc        1 MOL      0.094422
     82 H35         0.8680    6.6360   -4.0460 hc        1 MOL      0.094422
     83 N9          1.6720    4.3340   -2.2340 n         1 MOL     -0.396340
     84 C26         2.3090    3.1140   -2.7660 c3        1 MOL     -0.112590
     85 C27         1.8370    1.8590   -2.0070 c         1 MOL      0.553718
     86 O15         0.6270    1.7270   -1.7170 o         1 MOL     -0.485427
     87 C28         1.9260    3.1010   -4.3010 c3        1 MOL      0.167152
     88 C29         2.5790    4.1980   -5.1700 c3        1 MOL      0.105472
     89 C30         2.1590    1.8380   -5.0440 c3        1 MOL     -0.485754
     90 C31         1.6740    4.6770   -6.2680 c3        1 MOL     -0.036307
     91 H36         0.7030    4.3020   -1.9570 hn        1 MOL      0.199949
     92 H37         3.3810    3.1410   -2.5940 h1        1 MOL      0.075017
     93 H38         0.8450    3.2420   -4.2920 hc        1 MOL      0.061722
     94 H39         3.5620    3.9220   -5.5700 hc        1 MOL     -0.026752
     95 H40         2.6010    5.0760   -4.5270 hc        1 MOL     -0.026752
     96 H41         1.6940    1.8940   -6.0280 hc        1 MOL      0.119103
     97 H42         3.2120    1.5620   -5.1390 hc        1 MOL      0.119103
     98 H43         1.5590    1.0450   -4.5980 hc        1 MOL      0.119103
     99 H44         1.3230    3.9060   -6.9510 hc        1 MOL     -0.004130
    100 H45         0.8680    5.1900   -5.7360 hc        1 MOL     -0.004130
    101 H46         2.2300    5.3730   -6.8970 hc        1 MOL     -0.004130
    102 N10         2.6790    0.8690   -1.8290 n         1 MOL     -0.445466
    103 C32         2.3220   -0.1300   -0.8650 c3        1 MOL      0.054312
    104 C33         3.5690   -0.5660   -0.0970 c         1 MOL      0.388375
    105 O16         3.8700   -1.7300    0.0340 o         1 MOL     -0.320500
    106 C34         1.6070   -1.3480   -1.5200 c3        1 MOL     -0.044000
    107 C35         1.0240   -2.2460   -0.3700 c         1 MOL      0.623405
    108 O17         0.7550   -1.8210    0.7830 o         1 MOL     -0.670470
    109 O18         0.7930   -3.4100   -0.8050 o         1 MOL     -0.670470
    110 H47         3.6130    0.8920   -2.2100 hn        1 MOL      0.297828
    111 H48         1.6530    0.4050   -0.1750 h1        1 MOL      0.082758
    112 H49         2.3580   -1.9280   -2.0410 hc        1 MOL      0.029459
    113 H50         0.8760   -1.0410   -2.2710 hc        1 MOL      0.029459
    114 N11         4.3540    0.4670    0.3460 n         1 MOL     -0.438430
    115 C36         5.6370    0.3810    1.0640 c3        1 MOL      0.214067
    116 C37         6.6100   -0.5460    0.2690 c         1 MOL      0.389991
    117 O19         6.9180   -0.2480   -0.8780 o         1 MOL     -0.547678
    118 C38         6.2980    1.8130    1.1830 c3        1 MOL     -0.233142
    119 C39         5.4840    2.8910    1.9860 ca        1 MOL      0.105686
    120 C40         4.6680    3.7770    1.2540 ca        1 MOL     -0.159414
    121 C41         5.6360    2.9780    3.4210 ca        1 MOL     -0.159414
    122 C42         3.9140    4.7850    1.9470 ca        1 MOL     -0.101404
    123 C43         4.7950    3.9170    4.0740 ca        1 MOL     -0.101404
    124 C44         3.8970    4.7800    3.3740 ca        1 MOL     -0.139363
    125 H51         4.1170    1.3880    0.0120 hn        1 MOL      0.263800
    126 H52         5.5750    0.1010    2.1200 h1        1 MOL      0.004686
    127 H53         6.3770    2.0540    0.1260 hc        1 MOL      0.080789
    128 H54         7.3080    1.7700    1.5770 hc        1 MOL      0.080789
    129 H55         4.5410    3.6870    0.1810 ha        1 MOL      0.119462
    130 H56         6.4010    2.3900    3.9070 ha        1 MOL      0.119462
    131 H57         3.3130    5.5280    1.4400 ha        1 MOL      0.094377
    132 H58         4.7540    3.8410    5.1500 ha        1 MOL      0.094377
    133 H59         3.2280    5.4770    3.8620 ha        1 MOL      0.128639
    134 N12         7.0780   -1.6280    0.7940 n         1 MOL     -0.205611
    135 C45         7.9200   -2.6250    0.1380 c3        1 MOL      0.177712
    136 C46         7.2190   -3.4790   -0.8680 c         1 MOL      0.241329
    137 O20         7.8210   -4.0740   -1.7680 o         1 MOL     -0.526945
    138 C47         8.4480   -3.5010    1.3260 c3        1 MOL     -0.155054
    139 C48         7.2290   -3.4970    2.2330 c3        1 MOL      0.004257
    140 C49         6.7820   -2.1160    2.1730 c3        1 MOL     -0.100262
    141 H60         8.8580   -2.2500   -0.2800 h1        1 MOL      0.050283
    142 H61         8.7610   -4.4970    1.0150 hc        1 MOL      0.061513
    143 H62         9.2550   -3.0070    1.8720 hc        1 MOL      0.061513
    144 H63         6.4660   -4.2000    1.8790 hc        1 MOL      0.028915
    145 H64         7.4100   -3.7710    3.2770 hc        1 MOL      0.028915
    146 H65         5.7240   -2.0440    2.4210 h1        1 MOL      0.074136
    147 H66         7.3330   -1.5970    2.9640 h1        1 MOL      0.074136
    148 N13         5.8610   -3.6460   -0.7430 n         1 MOL      0.138935
    149 C50         5.1200   -4.6570   -1.4960 c3        1 MOL     -0.360501
    150 C51         4.8940   -4.3180   -2.9660 c         1 MOL      0.492706
    151 O21         4.5520   -5.2370   -3.7210 o         1 MOL     -0.533702
    152 C52         3.7310   -4.8720   -0.8480 c3        1 MOL      0.370901
    153 C53         3.6260   -5.3740    0.6020 c3        1 MOL     -0.435561
    154 C54         2.2160   -5.7590    1.0180 c         1 MOL      0.909833
    155 O22         1.8190   -6.8730    0.5860 o         1 MOL     -0.765736
    156 O23         1.5580   -4.9060    1.6070 o         1 MOL     -0.765736
    157 H67         5.3240   -2.9900   -0.1950 hn        1 MOL      0.056852
    158 H68         5.6650   -5.6000   -1.4170 h1        1 MOL      0.156911
    159 H69         3.1870   -5.5320   -1.5220 hc        1 MOL     -0.033310
    160 H70         3.1850   -3.9280   -0.8440 hc        1 MOL     -0.033310
    161 H71         4.0970   -4.6680    1.2770 hc        1 MOL      0.035794
    162 H72         4.3140   -6.2190    0.6750 hc        1 MOL      0.035794
    163 N14         5.2570   -3.0920   -3.4460 n         1 MOL     -0.227483
    164 C55         5.0360   -2.6530   -4.8240 c3        1 MOL     -0.179717
    165 H73         5.9440   -2.1870   -5.2070 h1        1 MOL      0.080092
    166 H74         4.7790   -3.5120   -5.4440 h1        1 MOL      0.080092
    167 H75         4.2200   -1.9300   -4.8480 h1        1 MOL      0.080092
    168 H76         5.5960   -2.4190   -2.7780 hn        1 MOL      0.221107
    169 Ca1        -0.8830   -3.8610    1.2210 Ca        1 MOL      1.821567
    170 O24        -2.2580   -4.4220   -1.1880 oh        1 MOL     -0.907371
    171 H77        -2.0060   -4.9330   -1.9610 ho        1 MOL      0.428639
    172 H78        -3.1990   -4.2670   -1.2930 ho        1 MOL      0.428639
    173 O25        -0.7420   -6.4830    0.5640 oh        1 MOL     -0.907371
    174 H79        -1.0090   -7.0010   -0.1890 ho        1 MOL      0.428639
    175 H80         0.1900   -6.6890    0.6840 ho        1 MOL      0.428639
    176 O26        -0.8230   -2.2810    3.2460 oh        1 MOL     -0.907371
    177 H81        -0.3130   -1.4730    3.1430 ho        1 MOL      0.428639
    178 H82        -1.0490   -2.3030    4.1750 ho        1 MOL      0.428639
    179 O27        -2.2070   -1.8820    0.3860 oh        1 MOL     -0.907371
    180 H83        -2.1490   -0.9300    0.5290 ho        1 MOL      0.428639
    181 H84        -3.0390   -2.0070   -0.0540 ho        1 MOL      0.428639
    182 O28        -0.8300   -5.3100    3.5170 oh        1 MOL     -0.907371
    183 H85        -1.5130   -5.0890    4.1500 ho        1 MOL      0.428639
    184 H86        -0.1330   -5.6990    4.0350 ho        1 MOL      0.428639
@<TRIPOS>BOND
     1    1    2 1   
     2    1    4 1   
     3    1    5 1   
     4    1    6 1   
     5    2    3 2   
     6    2    7 1   
     7    7    8 1   
     8    7   15 1   
     9    8    9 1   
    10    8   11 1   
    11    8   16 1   
    12    9   10 2   
    13    9   19 1   
    14   11   12 1   
    15   11   17 1   
    16   11   18 1   
    17   12   13 1   
    18   12   14 1   
    19   19   20 1   
    20   19   24 1   
    21   20   21 1   
    22   20   23 1   
    23   20   25 1   
    24   21   22 2   
    25   21   29 1   
    26   23   26 1   
    27   23   27 1   
    28   23   28 1   
    29   29   30 1   
    30   29   37 1   
    31   30   31 1   
    32   30   33 1   
    33   30   38 1   
    34   31   32 2   
    35   31   41 1   
    36   33   34 1   
    37   33   39 1   
    38   33   40 1   
    39   34   35 1   
    40   34   36 1   
    41   41   42 1   
    42   41   45 1   
    43   42   43 1   
    44   42   46 1   
    45   42   47 1   
    46   43   44 2   
    47   43   48 1   
    48   48   49 1   
    49   48   56 1   
    50   49   50 1   
    51   49   52 1   
    52   49   57 1   
    53   50   51 2   
    54   50   62 1   
    55   52   53 1   
    56   52   58 1   
    57   52   59 1   
    58   53   54 1   
    59   53   55 2   
    60   54   60 1   
    61   54   61 1   
    62   62   63 1   
    63   62   66 1   
    64   63   64 1   
    65   63   67 1   
    66   63   68 1   
    67   64   65 2   
    68   64   69 1   
    69   69   70 1   
    70   69   76 1   
    71   70   71 1   
    72   70   73 1   
    73   70   77 1   
    74   71   72 2   
    75   71   83 1   
    76   73   74 1   
    77   73   75 1   
    78   73   78 1   
    79   74   80 1   
    80   74   81 1   
    81   74   82 1   
    82   75   79 1   
    83   83   84 1   
    84   83   91 1   
    85   84   85 1   
    86   84   87 1   
    87   84   92 1   
    88   85   86 2   
    89   85  102 1   
    90   87   88 1   
    91   87   89 1   
    92   87   93 1   
    93   88   90 1   
    94   88   94 1   
    95   88   95 1   
    96   89   96 1   
    97   89   97 1   
    98   89   98 1   
    99   90   99 1   
   100   90  100 1   
   101   90  101 1   
   102  102  103 1   
   103  102  110 1   
   104  103  104 1   
   105  103  106 1   
   106  103  111 1   
   107  104  105 2   
   108  104  114 1   
   109  106  107 1   
   110  106  112 1   
   111  106  113 1   
   112  107  108 1   
   113  107  109 1   
   114  114  115 1   
   115  114  125 1   
   116  115  116 1   
   117  115  118 1   
   118  115  126 1   
   119  116  117 2   
   120  116  134 1   
   121  118  119 1   
   122  118  127 1   
   123  118  128 1   
   124  119  120 ar  
   125  119  121 ar  
   126  120  122 ar  
   127  120  129 1   
   128  121  123 ar  
   129  121  130 1   
   130  122  124 ar  
   131  122  131 1   
   132  123  124 ar  
   133  123  132 1   
   134  124  133 1   
   135  134  135 1   
   136  134  140 1   
   137  135  136 1   
   138  135  138 1   
   139  135  141 1   
   140  136  137 2   
   141  136  148 1   
   142  138  139 1   
   143  138  142 1   
   144  138  143 1   
   145  139  140 1   
   146  139  144 1   
   147  139  145 1   
   148  140  146 1   
   149  140  147 1   
   150  148  149 1   
   151  148  157 1   
   152  149  150 1   
   153  149  152 1   
   154  149  158 1   
   155  150  151 2   
   156  150  163 1   
   157  152  153 1   
   158  152  159 1   
   159  152  160 1   
   160  153  154 1   
   161  153  161 1   
   162  153  162 1   
   163  154  155 1   
   164  154  156 1   
   165  163  164 1   
   166  163  168 1   
   167  164  165 1   
   168  164  166 1   
   169  164  167 1   
   170  170  171 1   
   171  170  172 1   
   172  173  174 1   
   173  173  175 1   
   174  176  177 1   
   175  176  178 1   
   176  179  180 1   
   177  179  181 1   
   178  182  183 1   
   179  182  184 1   
@<TRIPOS>SUBSTRUCTURE
     1 MOL         1 TEMP              0 ****  ****    0 ROOT
