@<TRIPOS>MOLECULE
MOL
  192   187     1     0     0
SMALL
resp


@<TRIPOS>ATOM
      1 C1          9.4760    0.8120    1.7980 c3        1 MOL     -0.432038
      2 C2          8.3010    0.3970    0.9310 c         1 MOL      0.752196
      3 O1          7.1620    0.3570    1.4120 o         1 MOL     -0.672729
      4 H1         10.1710   -0.0220    1.8890 hc        1 MOL      0.106440
      5 H2          9.9850    1.6600    1.3380 hc        1 MOL      0.106440
      6 H3          9.1160    1.0950    2.7870 hc        1 MOL      0.106440
      7 N1          8.6450   -0.0470   -0.2870 n         1 MOL     -0.615506
      8 C3          7.6800   -0.4370   -1.3620 c3        1 MOL     -0.017885
      9 C4          6.9030   -1.8010   -1.1990 c         1 MOL      0.624648
     10 O2          6.6200   -2.4510   -2.2140 o         1 MOL     -0.429067
     11 C5          8.3380   -0.2900   -2.7260 c3        1 MOL     -0.431129
     12 C6          9.4880   -1.2340   -2.9960 c         1 MOL      0.762611
     13 O3          9.8340   -2.0480   -2.1300 o         1 MOL     -0.639414
     14 O4         10.0950   -1.2140   -4.1370 o         1 MOL     -0.639414
     15 H4          9.6300    0.0040   -0.4980 hn        1 MOL      0.349860
     16 H5          6.8680    0.2840   -1.3550 h1        1 MOL      0.157165
     17 H6          8.5910    0.7720   -2.7530 hc        1 MOL      0.134044
     18 H7          7.6970   -0.4840   -3.5850 hc        1 MOL      0.134044
     19 N2          6.7340   -2.3200    0.0630 n         1 MOL     -0.702162
     20 C7          6.1400   -3.6010    0.3080 c3        1 MOL      0.329757
     21 C8          4.6900   -3.8060   -0.1030 c         1 MOL      0.287268
     22 O5          4.4280   -4.7030   -0.8830 o         1 MOL     -0.492045
     23 C9          6.3350   -4.0070    1.7640 c3        1 MOL     -0.298226
     24 C10         7.7080   -3.8740    2.3600 c3        1 MOL      0.028456
     25 C11         7.8450   -4.2520    3.8350 c3        1 MOL     -0.218931
     26 C12         9.2080   -3.9500    4.2560 c3        1 MOL      0.185504
     27 N3          9.5710   -4.3670    5.5970 n4        1 MOL     -0.165064
     28 H8          6.9570   -1.6760    0.8100 hn        1 MOL      0.430876
     29 H9          6.7180   -4.3430   -0.2530 h1        1 MOL      0.073225
     30 H10         6.1930   -5.0940    1.7160 hc        1 MOL      0.090366
     31 H11         5.6540   -3.4440    2.3940 hc        1 MOL      0.090366
     32 H12         7.9780   -2.8300    2.2640 hc        1 MOL      0.045504
     33 H13         8.3450   -4.5280    1.7640 hc        1 MOL      0.045504
     34 H14         7.6960   -5.3380    3.8410 hc        1 MOL      0.079922
     35 H15         7.0960   -3.7360    4.4420 hc        1 MOL      0.079922
     36 H16         9.3760   -2.8740    4.2130 hx        1 MOL      0.028735
     37 H17         9.9070   -4.4380    3.5730 hx        1 MOL      0.028735
     38 H18         9.0010   -3.8720    6.2800 hn        1 MOL      0.232993
     39 H19         9.3400   -5.3390    5.7430 hn        1 MOL      0.232993
     40 H20        10.5420   -4.1960    5.8070 hn        1 MOL      0.232993
     41 N4          3.7480   -2.8870    0.1850 n         1 MOL     -0.227131
     42 C13         3.7940   -1.5850    0.8870 c3        1 MOL     -0.167893
     43 C14         4.0310   -0.4020   -0.0530 c         1 MOL      0.078454
     44 O6          4.0330   -0.5470   -1.2950 o         1 MOL     -0.386457
     45 C15         2.4700   -1.4570    1.7010 c3        1 MOL      0.011964
     46 C16         1.1790   -1.9930    1.1360 c         1 MOL      0.602136
     47 O7          0.6990   -1.5210    0.0710 o         1 MOL     -0.685375
     48 O8          0.6090   -2.9250    1.7750 o         1 MOL     -0.685375
     49 H21         3.0030   -3.0330   -0.4880 hn        1 MOL      0.316284
     50 H22         4.5990   -1.5930    1.6180 h1        1 MOL      0.154269
     51 H23         2.3700   -0.4210    2.0140 hc        1 MOL     -0.009871
     52 H24         2.6650   -2.0270    2.6180 hc        1 MOL     -0.009871
     53 N5          4.1560    0.7800    0.5680 n         1 MOL     -0.060547
     54 C17         4.3930    1.9870   -0.1810 c3        1 MOL     -0.269026
     55 C18         3.0610    2.3880   -0.8030 c         1 MOL      0.457747
     56 O9          1.9370    1.9850   -0.4780 o         1 MOL     -0.467198
     57 H25         4.2930    0.7130    1.5640 hn        1 MOL      0.253439
     58 H26         5.0790    1.6170   -0.9440 h1        1 MOL      0.128411
     59 H27         4.7880    2.7440    0.4930 h1        1 MOL      0.128411
     60 N6          3.2550    3.4190   -1.5680 n         1 MOL     -0.279886
     61 C19         2.2440    4.2950   -2.1770 c3        1 MOL      0.190567
     62 C20         2.7390    5.8020   -2.0920 c         1 MOL      0.447367
     63 O10         3.9530    6.1010   -1.8800 o         1 MOL     -0.536570
     64 C21         1.8350    3.7790   -3.5990 c3        1 MOL     -0.305610
     65 C22         1.4480    2.3530   -3.8060 c         1 MOL      0.727288
     66 O11         0.4100    2.0780   -3.2000 o         1 MOL     -0.671873
     67 O12         2.0780    1.6080   -4.6430 o         1 MOL     -0.671873
     68 H28         4.2170    3.6960   -1.6150 hn        1 MOL      0.229341
     69 H29         1.3590    4.2850   -1.5380 h1        1 MOL      0.104512
     70 H30         2.6050    4.0960   -4.3010 hc        1 MOL      0.054912
     71 H31         0.9330    4.2930   -3.9270 hc        1 MOL      0.054912
     72 N7          1.9330    6.8800   -2.3270 n         1 MOL     -0.414245
     73 C23         0.4690    6.8850   -2.3920 c3        1 MOL     -0.157332
     74 C24        -0.1790    6.4720   -1.0490 c         1 MOL      0.554989
     75 O13         0.3050    6.7610    0.0640 o         1 MOL     -0.505103
     76 H32         2.4400    7.7380   -2.4520 hn        1 MOL      0.326428
     77 H33         0.1730    6.2000   -3.1900 h1        1 MOL      0.103850
     78 H34         0.1460    7.9130   -2.5810 h1        1 MOL      0.103850
     79 N8         -1.1860    5.6500   -1.1640 n         1 MOL     -0.501429
     80 C25        -2.0420    5.0540   -0.1190 c3        1 MOL      0.084742
     81 C26        -1.4110    3.8600    0.5740 c         1 MOL      1.116722
     82 O14        -0.8110    3.0720   -0.1270 o         1 MOL     -0.903613
     83 C27        -3.4000    4.6290   -0.7170 c3        1 MOL      0.356885
     84 C28        -4.2570    5.8450   -1.0250 c3        1 MOL     -0.417768
     85 O15        -4.1110    3.6790    0.1320 oh        1 MOL     -0.686014
     86 H35        -1.5810    5.4790   -2.0810 hn        1 MOL      0.278454
     87 H36        -2.2430    5.7910    0.6510 h1        1 MOL      0.004653
     88 H37        -3.1250    4.0280   -1.5910 h1        1 MOL      0.010332
     89 H38        -4.8450    3.3200   -0.3690 ho        1 MOL      0.422481
     90 H39        -3.7730    6.4900   -1.7610 hc        1 MOL      0.118553
     91 H40        -5.2230    5.4390   -1.3070 hc        1 MOL      0.118553
     92 H41        -4.5530    6.3820   -0.1190 hc        1 MOL      0.118553
     93 N9         -1.5230    3.7410    1.9300 n         1 MOL     -0.905139
     94 C29        -0.8930    2.7280    2.7780 c3        1 MOL      0.146113
     95 C30        -1.3370    1.3260    2.3290 c         1 MOL      0.601763
     96 O16        -0.6350    0.6890    1.5170 o         1 MOL     -0.625383
     97 C31         0.6580    2.8930    2.8250 c3        1 MOL      0.044639
     98 C32         1.2660    4.3380    2.9050 c3        1 MOL      0.081118
     99 C33         1.3190    2.1150    3.9880 c3        1 MOL     -0.399111
    100 C34         2.6490    4.6170    2.3230 c3        1 MOL     -0.017283
    101 H42        -1.9850    4.4930    2.4250 hn        1 MOL      0.378116
    102 H43        -1.2520    2.8270    3.7950 h1        1 MOL      0.054787
    103 H44         1.0930    2.4860    1.9090 hc        1 MOL      0.097221
    104 H45         1.4150    4.5550    3.9680 hc        1 MOL     -0.030416
    105 H46         0.6320    5.0720    2.4190 hc        1 MOL     -0.030416
    106 H47         0.9420    2.5650    4.9070 hc        1 MOL      0.100291
    107 H48         0.9190    1.1010    3.9490 hc        1 MOL      0.100291
    108 H49         2.4080    2.1440    4.0180 hc        1 MOL      0.100291
    109 H50         3.1190    5.3090    3.0300 hc        1 MOL      0.002717
    110 H51         3.2150    3.7100    2.1380 hc        1 MOL      0.002717
    111 H52         2.5650    5.0510    1.3290 hc        1 MOL      0.002717
    112 N10        -2.4740    0.8860    2.7810 n         1 MOL     -0.509624
    113 C35        -2.8410   -0.5240    2.6220 c3        1 MOL     -0.299807
    114 C36        -4.3460   -0.8250    2.5280 c         1 MOL      0.631058
    115 O17        -4.6940   -1.9510    2.5800 o         1 MOL     -0.551824
    116 C37        -2.2340   -1.3340    3.8370 c3        1 MOL      0.489737
    117 C38        -2.9890   -1.0290    5.1740 c3        1 MOL     -0.053181
    118 O18        -0.8750   -1.0240    4.0160 oh        1 MOL     -0.648851
    119 H53        -3.1000    1.5250    3.2540 hn        1 MOL      0.358073
    120 H54        -2.5330   -0.9840    1.6760 h1        1 MOL      0.169424
    121 H55        -2.2080   -2.4100    3.6700 h1        1 MOL     -0.029254
    122 H56        -0.3820   -1.4590    3.3170 ho        1 MOL      0.419334
    123 H57        -3.8140   -1.7260    5.3170 hc        1 MOL      0.005635
    124 H58        -2.3690   -1.1930    6.0550 hc        1 MOL      0.005635
    125 H59        -3.4530   -0.0410    5.1600 hc        1 MOL      0.005635
    126 N11        -5.1320    0.2260    2.5740 n         1 MOL     -0.408724
    127 C39        -6.6410    0.1650    2.6680 c3        1 MOL      0.184374
    128 C40        -7.1320   -0.2380    1.2540 c         1 MOL      0.373979
    129 O19        -7.5860    0.6100    0.4940 o         1 MOL     -0.487710
    130 C41        -7.1780    1.5290    3.2360 c3        1 MOL      0.352504
    131 C42        -8.7000    1.5440    3.4430 c3        1 MOL     -0.501639
    132 O20        -6.7820    1.8670    4.5440 oh        1 MOL     -0.655471
    133 H60        -4.6520    1.1190    2.6390 hn        1 MOL      0.225547
    134 H61        -6.9610   -0.6410    3.3210 h1        1 MOL      0.047119
    135 H62        -6.8600    2.3260    2.5510 h1        1 MOL      0.010912
    136 H63        -7.3410    2.5730    4.8790 ho        1 MOL      0.419714
    137 H64        -9.2510    1.1460    2.5960 hc        1 MOL      0.131776
    138 H65        -8.9790    0.9800    4.3220 hc        1 MOL      0.131776
    139 H66        -9.0980    2.5530    3.5400 hc        1 MOL      0.131776
    140 N12        -7.1270   -1.5830    1.0100 n         1 MOL     -0.473241
    141 C43        -7.0860   -2.2450   -0.2670 c3        1 MOL      0.178604
    142 C44        -5.7210   -1.9770   -0.9550 c         1 MOL      0.457504
    143 O21        -5.1800   -0.8770   -0.9970 o         1 MOL     -0.508404
    144 C45        -8.3880   -1.8720   -1.1790 c3        1 MOL     -0.393817
    145 C46        -9.6080   -2.4470   -0.3960 c3        1 MOL      0.108893
    146 C47       -10.7790   -2.4900   -1.3710 c3        1 MOL      0.118270
    147 C48       -12.1340   -2.6170   -0.6440 c3        1 MOL      0.041713
    148 N13       -13.1980   -3.0570   -1.5190 n4        1 MOL     -0.102097
    149 H67        -6.7230   -2.1100    1.7700 hn        1 MOL      0.281896
    150 H68        -7.0330   -3.3310   -0.3280 h1        1 MOL      0.026961
    151 H69        -8.3150   -2.3890   -2.1330 hc        1 MOL      0.152581
    152 H70        -8.5490   -0.8020   -1.3270 hc        1 MOL      0.152581
    153 H71        -9.7500   -1.9140    0.5500 hc        1 MOL     -0.003735
    154 H72        -9.4400   -3.4940   -0.1110 hc        1 MOL     -0.003735
    155 H73       -10.7460   -3.3510   -2.0470 hc        1 MOL     -0.021020
    156 H74       -10.8060   -1.6330   -2.0410 hc        1 MOL     -0.021020
    157 H75       -12.4170   -1.6810   -0.1610 hx        1 MOL      0.040309
    158 H76       -11.9680   -3.3690    0.1270 hx        1 MOL      0.040309
    159 H77       -13.3480   -2.4590   -2.3120 hn        1 MOL      0.188427
    160 H78       -13.0830   -4.0030   -1.8560 hn        1 MOL      0.188427
    161 H79       -14.0760   -3.0720   -1.0230 hn        1 MOL      0.188427
    162 N14        -4.9890   -3.0370   -1.3880 n         1 MOL     -0.375466
    163 C49        -3.6100   -2.7910   -1.8900 c3        1 MOL      0.003539
    164 C50        -2.6400   -2.4280   -0.7550 c         1 MOL      0.284545
    165 O22        -2.2480   -1.3020   -0.6600 o         1 MOL     -0.492768
    166 C51        -3.1190   -3.9370   -2.7970 c3        1 MOL      0.041211
    167 C52        -4.0030   -4.2170   -3.9820 c3        1 MOL     -0.139856
    168 C53        -3.5890   -5.4160   -4.8250 c         1 MOL      0.662635
    169 O23        -3.3350   -5.1580   -6.0290 o         1 MOL     -0.648812
    170 O24        -3.4260   -6.5410   -4.2500 o         1 MOL     -0.648812
    171 H80        -5.4610   -3.9310   -1.3750 hn        1 MOL      0.305558
    172 H81        -3.5680   -1.9260   -2.5570 h1        1 MOL      0.129392
    173 H82        -2.9990   -4.8750   -2.2700 hc        1 MOL      0.037938
    174 H83        -2.0940   -3.6750   -3.0860 hc        1 MOL      0.037938
    175 H84        -3.9830   -3.3510   -4.6460 hc        1 MOL     -0.013520
    176 H85        -5.0320   -4.3310   -3.6290 hc        1 MOL     -0.013520
    177 N15        -2.1770   -3.2700    0.1560 n         1 MOL     -0.225517
    178 C54        -2.5750   -4.6560    0.4340 c3        1 MOL     -0.091742
    179 H86        -2.1470   -4.9720    1.3850 h1        1 MOL      0.054503
    180 H87        -3.6610   -4.7190    0.4860 h1        1 MOL      0.054503
    181 H88        -2.2100   -5.3060   -0.3610 h1        1 MOL      0.054503
    182 H89        -1.5360   -2.8750    0.8370 hn        1 MOL      0.337193
    183 Ca1        -0.4470    0.5880   -1.1900 Ca        1 MOL      1.786637
    184 O25        -3.0790    1.3660   -1.1690 oh        1 MOL     -0.849364
    185 H90        -3.4230    0.5760   -0.7460 ho        1 MOL      0.412471
    186 H91        -3.4160    2.0930   -0.6330 ho        1 MOL      0.412471
    187 O26         1.6560   -0.5270   -2.5230 oh        1 MOL     -0.849364
    188 H92         2.1990   -1.2000   -2.1010 ho        1 MOL      0.412471
    189 H93         2.0370   -0.4230   -3.3950 ho        1 MOL      0.412471
    190 O27        -1.3060   -0.5160   -3.4360 oh        1 MOL     -0.849364
    191 H94        -0.8130   -1.3270   -3.5620 ho        1 MOL      0.412471
    192 H95        -1.6110   -0.2780   -4.3030 ho        1 MOL      0.412471
@<TRIPOS>BOND
     1    1    2 1   
     2    1    4 1   
     3    1    5 1   
     4    1    6 1   
     5    2    3 2   
     6    2    7 1   
     7    7    8 1   
     8    7   15 1   
     9    8    9 1   
    10    8   11 1   
    11    8   16 1   
    12    9   10 2   
    13    9   19 1   
    14   11   12 1   
    15   11   17 1   
    16   11   18 1   
    17   12   13 1   
    18   12   14 1   
    19   19   20 1   
    20   19   28 1   
    21   20   21 1   
    22   20   23 1   
    23   20   29 1   
    24   21   22 2   
    25   21   41 1   
    26   23   24 1   
    27   23   30 1   
    28   23   31 1   
    29   24   25 1   
    30   24   32 1   
    31   24   33 1   
    32   25   26 1   
    33   25   34 1   
    34   25   35 1   
    35   26   27 1   
    36   26   36 1   
    37   26   37 1   
    38   27   38 1   
    39   27   39 1   
    40   27   40 1   
    41   41   42 1   
    42   41   49 1   
    43   42   43 1   
    44   42   45 1   
    45   42   50 1   
    46   43   44 2   
    47   43   53 1   
    48   45   46 1   
    49   45   51 1   
    50   45   52 1   
    51   46   47 1   
    52   46   48 1   
    53   53   54 1   
    54   53   57 1   
    55   54   55 1   
    56   54   58 1   
    57   54   59 1   
    58   55   56 2   
    59   55   60 1   
    60   60   61 1   
    61   60   68 1   
    62   61   62 1   
    63   61   64 1   
    64   61   69 1   
    65   62   63 2   
    66   62   72 1   
    67   64   65 1   
    68   64   70 1   
    69   64   71 1   
    70   65   66 1   
    71   65   67 1   
    72   72   73 1   
    73   72   76 1   
    74   73   74 1   
    75   73   77 1   
    76   73   78 1   
    77   74   75 2   
    78   74   79 1   
    79   79   80 1   
    80   79   86 1   
    81   80   81 1   
    82   80   83 1   
    83   80   87 1   
    84   81   82 2   
    85   81   93 1   
    86   83   84 1   
    87   83   85 1   
    88   83   88 1   
    89   84   90 1   
    90   84   91 1   
    91   84   92 1   
    92   85   89 1   
    93   93   94 1   
    94   93  101 1   
    95   94   95 1   
    96   94   97 1   
    97   94  102 1   
    98   95   96 2   
    99   95  112 1   
   100   97   98 1   
   101   97   99 1   
   102   97  103 1   
   103   98  100 1   
   104   98  104 1   
   105   98  105 1   
   106   99  106 1   
   107   99  107 1   
   108   99  108 1   
   109  100  109 1   
   110  100  110 1   
   111  100  111 1   
   112  112  113 1   
   113  112  119 1   
   114  113  114 1   
   115  113  116 1   
   116  113  120 1   
   117  114  115 2   
   118  114  126 1   
   119  116  117 1   
   120  116  118 1   
   121  116  121 1   
   122  117  123 1   
   123  117  124 1   
   124  117  125 1   
   125  118  122 1   
   126  126  127 1   
   127  126  133 1   
   128  127  128 1   
   129  127  130 1   
   130  127  134 1   
   131  128  129 2   
   132  128  140 1   
   133  130  131 1   
   134  130  132 1   
   135  130  135 1   
   136  131  137 1   
   137  131  138 1   
   138  131  139 1   
   139  132  136 1   
   140  140  141 1   
   141  140  149 1   
   142  141  142 1   
   143  141  144 1   
   144  141  150 1   
   145  142  143 2   
   146  142  162 1   
   147  144  145 1   
   148  144  151 1   
   149  144  152 1   
   150  145  146 1   
   151  145  153 1   
   152  145  154 1   
   153  146  147 1   
   154  146  155 1   
   155  146  156 1   
   156  147  148 1   
   157  147  157 1   
   158  147  158 1   
   159  148  159 1   
   160  148  160 1   
   161  148  161 1   
   162  162  163 1   
   163  162  171 1   
   164  163  164 1   
   165  163  166 1   
   166  163  172 1   
   167  164  165 2   
   168  164  177 1   
   169  166  167 1   
   170  166  173 1   
   171  166  174 1   
   172  167  168 1   
   173  167  175 1   
   174  167  176 1   
   175  168  169 1   
   176  168  170 1   
   177  177  178 1   
   178  177  182 1   
   179  178  179 1   
   180  178  180 1   
   181  178  181 1   
   182  184  185 1   
   183  184  186 1   
   184  187  188 1   
   185  187  189 1   
   186  190  191 1   
   187  190  192 1   
@<TRIPOS>SUBSTRUCTURE
     1 MOL         1 TEMP              0 ****  ****    0 ROOT
