@<TRIPOS>MOLECULE
MOL
  194   186     1     0     0
SMALL
resp


@<TRIPOS>ATOM
      1 C1          1.1140    1.1800    2.7690 c3        1 MOL     -0.108832
      2 C2          2.2480    1.0110    1.7330 c         1 MOL      0.496447
      3 O1          2.0430    0.9400    0.4810 o         1 MOL     -0.567570
      4 H1          1.5400    1.4710    3.7290 hc        1 MOL      0.035369
      5 H2          0.4240    1.9530    2.4300 hc        1 MOL      0.035369
      6 H3          0.5790    0.2370    2.8800 hc        1 MOL      0.035369
      7 N1          3.4160    0.5170    2.1170 n         1 MOL     -0.341320
      8 C3          4.7000    0.2340    1.4560 c3        1 MOL     -0.185997
      9 C4          5.2160   -1.2220    1.4740 c         1 MOL      0.601883
     10 O2          6.3330   -1.4420    1.1130 o         1 MOL     -0.442783
     11 C5          5.7530    1.2670    1.9010 c3        1 MOL     -0.050834
     12 C6          6.3700    1.0620    3.2520 c         1 MOL      0.612616
     13 O3          5.7050    0.4810    4.1490 o         1 MOL     -0.652922
     14 O4          7.5090    1.5010    3.4400 o         1 MOL     -0.652922
     15 H4          3.4170    0.4430    3.1280 hn        1 MOL      0.214394
     16 H5          4.5430    0.4210    0.3980 h1        1 MOL      0.129513
     17 H6          5.4550    2.3090    1.7660 hc        1 MOL      0.054039
     18 H7          6.5660    1.1370    1.1850 hc        1 MOL      0.054039
     19 N2          4.4720   -2.1050    2.1150 n         1 MOL     -0.317875
     20 C7          4.7180   -3.4990    2.3540 c3        1 MOL     -0.046561
     21 C8          5.1760   -4.2660    1.0550 c         1 MOL      0.419631
     22 O5          6.0190   -5.1230    1.1480 o         1 MOL     -0.514111
     23 C9          5.7440   -3.6420    3.5850 c3        1 MOL     -0.064870
     24 C10         5.1170   -3.0110    4.8470 c3        1 MOL      0.244490
     25 C11         6.2320   -3.1150    5.9500 c3        1 MOL     -0.448184
     26 C12         7.5530   -2.4330    5.5620 c3        1 MOL      0.033255
     27 N3          7.4310   -0.9770    5.4510 n4        1 MOL     -0.263125
     28 H8          3.6370   -1.7490    2.5640 hn        1 MOL      0.244628
     29 H9          3.7350   -3.9010    2.5930 h1        1 MOL      0.083211
     30 H10         6.6630   -3.1470    3.3000 hc        1 MOL      0.054633
     31 H11         6.0010   -4.6900    3.7480 hc        1 MOL      0.054633
     32 H12         4.1910   -3.5470    5.0560 hc        1 MOL     -0.034070
     33 H13         4.8740   -1.9790    4.5940 hc        1 MOL     -0.034070
     34 H14         6.3950   -4.1540    6.2170 hc        1 MOL      0.132210
     35 H15         5.8160   -2.6080    6.8330 hc        1 MOL      0.132210
     36 H16         8.1390   -2.8330    4.7370 hx        1 MOL      0.095200
     37 H17         8.3560   -2.5450    6.2870 hx        1 MOL      0.095200
     38 H18         8.3480   -0.5380    5.4320 hn        1 MOL      0.279170
     39 H19         6.8250   -0.6230    4.7290 hn        1 MOL      0.279170
     40 H20         7.0900   -0.6370    6.3430 hn        1 MOL      0.279170
     41 N4          4.7750   -3.7960   -0.1170 n         1 MOL     -0.208706
     42 C13         5.2070   -4.1860   -1.5070 c3        1 MOL      0.119283
     43 C14         5.5540   -2.9250   -2.3920 c         1 MOL      0.505959
     44 O6          5.2990   -2.8720   -3.6310 o         1 MOL     -0.532360
     45 C15         4.1660   -5.0820   -2.1510 c3        1 MOL     -0.292702
     46 C16         2.8610   -4.4070   -2.4710 c         1 MOL      0.692949
     47 O7          2.0130   -5.0030   -3.1470 o         1 MOL     -0.723349
     48 O8          2.4920   -3.3050   -2.0480 o         1 MOL     -0.723349
     49 H21         4.0380   -3.1040   -0.1380 hn        1 MOL      0.123977
     50 H22         6.1220   -4.7740   -1.5730 h1        1 MOL      0.066063
     51 H23         3.9710   -5.9890   -1.5900 hc        1 MOL      0.097857
     52 H24         4.5120   -5.5770   -3.0600 hc        1 MOL      0.097857
     53 N5          6.1690   -1.8730   -1.7750 n         1 MOL     -0.376223
     54 C17         6.4410   -0.5550   -2.4330 c3        1 MOL      0.017538
     55 C18         7.4530    0.2320   -1.5620 c         1 MOL      0.515223
     56 O9          8.3890   -0.3890   -0.9830 o         1 MOL     -0.527813
     57 H25         6.3930   -1.9290   -0.7900 hn        1 MOL      0.191476
     58 H26         5.5760    0.1030   -2.4990 h1        1 MOL      0.060737
     59 H27         6.9090   -0.6280   -3.4220 h1        1 MOL      0.060737
     60 N6          7.4080    1.5570   -1.4200 n         1 MOL     -0.499431
     61 C19         6.4930    2.5070   -2.0620 c3        1 MOL      0.269938
     62 C20         6.1660    3.6280   -1.0290 c         1 MOL      0.507204
     63 O10         7.0780    4.1470   -0.4460 o         1 MOL     -0.514571
     64 C21         7.1050    3.0670   -3.3500 c3        1 MOL     -0.399270
     65 C22         6.3840    4.2300   -3.9580 c         1 MOL      0.656403
     66 N7          5.1470    4.0850   -4.2810 n         1 MOL     -0.748502
     67 O11         7.0220    5.3090   -4.0450 o         1 MOL     -0.540016
     68 H28         8.2120    1.9360   -0.9480 hn        1 MOL      0.333236
     69 H29         5.5710    2.0500   -2.4160 h1        1 MOL     -0.029688
     70 H30         7.0110    2.2500   -4.0710 hc        1 MOL      0.121423
     71 H31         8.1170    3.3820   -3.0780 hc        1 MOL      0.121423
     72 H32         4.7490    3.1540   -4.3020 hn        1 MOL      0.360372
     73 H33         4.5770    4.8450   -4.6370 hn        1 MOL      0.360372
     74 N8          4.8920    3.9230   -0.6830 n         1 MOL     -0.394003
     75 C23         3.6160    3.4020   -1.2590 c3        1 MOL     -0.024124
     76 C24         2.4290    4.2210   -0.7210 c         1 MOL      0.655924
     77 O12         2.6830    5.3200   -0.2340 o         1 MOL     -0.540423
     78 H34         4.8060    4.6800   -0.0260 hn        1 MOL      0.275245
     79 H35         3.5360    2.3340   -1.0260 h1        1 MOL      0.027039
     80 H36         3.7010    3.4980   -2.3460 h1        1 MOL      0.027039
     81 N9          1.2100    3.6890   -0.8300 n         1 MOL     -0.591660
     82 C25        -0.0630    4.4530   -0.5350 c3        1 MOL      0.165775
     83 C26        -1.3000    3.6160   -0.1450 c         1 MOL      0.649324
     84 O13        -1.3770    2.4030   -0.4290 o         1 MOL     -0.549557
     85 C27        -0.4390    5.4500   -1.6530 c3        1 MOL     -0.219568
     86 C28        -1.3240    6.5480   -1.1920 ca        1 MOL      0.063605
     87 C29        -2.6870    6.6420   -1.6180 ca        1 MOL     -0.131635
     88 C30        -0.8930    7.4170   -0.2230 ca        1 MOL     -0.131635
     89 C31        -3.5840    7.5080   -0.9770 ca        1 MOL     -0.272344
     90 C32        -1.8060    8.2490    0.4240 ca        1 MOL     -0.272344
     91 C33        -3.1840    8.2090    0.1430 ca        1 MOL      0.336898
     92 O14        -4.1150    8.7680    0.9900 oh        1 MOL     -0.497919
     93 H37         1.1590    2.7080   -1.0230 hn        1 MOL      0.307877
     94 H38         0.2400    5.0240    0.3400 h1        1 MOL      0.046752
     95 H39        -0.8490    4.9470   -2.5240 hc        1 MOL      0.085901
     96 H40         0.4300    6.0350   -1.9570 hc        1 MOL      0.085901
     97 H41        -3.1380    6.0740   -2.4180 ha        1 MOL      0.138805
     98 H42         0.1540    7.4280    0.0240 ha        1 MOL      0.138805
     99 H43        -4.6000    7.5750   -1.3420 ha        1 MOL      0.146302
    100 H44        -1.4700    9.0230    1.0830 ha        1 MOL      0.146302
    101 H45        -3.7010    9.2180    1.7360 ho        1 MOL      0.373108
    102 N10        -2.1950    4.2130    0.6920 n         1 MOL     -0.427046
    103 C34        -3.3570    3.4950    1.2760 c3        1 MOL      0.000404
    104 C35        -4.4280    3.2430    0.2270 c         1 MOL      0.355665
    105 O15        -4.1380    3.5630   -0.9600 o         1 MOL     -0.467915
    106 C36        -3.8670    4.3210    2.4610 c3        1 MOL      0.297593
    107 C37        -4.6310    5.6600    2.0580 c3        1 MOL     -0.045323
    108 C38        -4.6170    3.4340    3.4920 c3        1 MOL     -0.323886
    109 C39        -4.7710    6.5390    3.3310 c3        1 MOL     -0.366798
    110 H46        -1.8970    5.1040    1.0600 hn        1 MOL      0.178014
    111 H47        -3.0770    2.5310    1.7110 h1        1 MOL      0.076223
    112 H48        -2.9470    4.5480    2.9990 hc        1 MOL     -0.012639
    113 H49        -5.5810    5.3230    1.6270 hc        1 MOL      0.057810
    114 H50        -4.0530    6.1600    1.2790 hc        1 MOL      0.057810
    115 H51        -4.0870    2.4950    3.6980 hc        1 MOL      0.082909
    116 H52        -4.6950    3.9060    4.4660 hc        1 MOL      0.082909
    117 H53        -5.6590    3.3880    3.1940 hc        1 MOL      0.082909
    118 H54        -5.2730    7.4700    3.0830 hc        1 MOL      0.093559
    119 H55        -5.4220    6.0040    4.0320 hc        1 MOL      0.093559
    120 H56        -3.8080    6.8340    3.7250 hc        1 MOL      0.093559
    121 N11        -5.5980    2.5830    0.4780 n         1 MOL     -0.198950
    122 C40        -6.5030    2.0930   -0.5500 c3        1 MOL     -0.158300
    123 C41        -6.0560    0.7660   -1.2390 c         1 MOL      0.736385
    124 O16        -5.1550    0.1250   -0.6710 o         1 MOL     -0.475293
    125 C42        -7.8680    1.8900    0.0900 c3        1 MOL      0.074717
    126 O17        -7.7220    1.0690    1.2300 oh        1 MOL     -0.527467
    127 H57        -5.7550    2.3120    1.4360 hn        1 MOL      0.181760
    128 H58        -6.6230    2.8550   -1.3170 h1        1 MOL      0.098880
    129 H59        -8.6120    1.4450   -0.5620 h1        1 MOL      0.040458
    130 H60        -8.2550    2.8480    0.4560 h1        1 MOL      0.040458
    131 H61        -8.3840    0.3740    1.1850 ho        1 MOL      0.415263
    132 N12        -6.3800    0.5040   -2.4760 n         1 MOL     -0.622283
    133 C43        -6.1270   -0.7540   -3.1610 c3        1 MOL      0.326962
    134 C44        -6.5970   -2.0480   -2.5220 c         1 MOL      0.510300
    135 O18        -5.9460   -3.0710   -2.4090 o         1 MOL     -0.471246
    136 C45        -4.6980   -0.7360   -3.6270 c3        1 MOL     -0.255906
    137 H62        -7.0160    1.0770   -3.0010 hn        1 MOL      0.294747
    138 H63        -6.6180   -0.6980   -4.1350 h1        1 MOL      0.028672
    139 H64        -4.3720    0.1270   -4.2150 hc        1 MOL      0.053410
    140 H65        -3.9320   -0.8730   -2.8720 hc        1 MOL      0.053410
    141 H66        -4.7480   -1.6070   -4.2780 hc        1 MOL      0.053410
    142 N13        -7.8600   -2.0250   -2.0290 n         1 MOL     -0.609786
    143 C46        -8.5490   -2.9750   -1.1550 c3        1 MOL      0.479053
    144 C47        -7.8690   -3.4190    0.1370 c         1 MOL      0.151531
    145 O19        -8.0420   -4.5330    0.6360 o         1 MOL     -0.441370
    146 C48        -8.9490   -4.1730   -1.9900 c3        1 MOL     -0.484861
    147 H67        -8.4460   -1.2370   -2.2730 hn        1 MOL      0.248704
    148 H68        -9.4450   -2.5500   -0.7080 h1        1 MOL     -0.004117
    149 H69        -9.5990   -4.8470   -1.4360 hc        1 MOL      0.129402
    150 H70        -9.4000   -3.7500   -2.8920 hc        1 MOL      0.129402
    151 H71        -8.0660   -4.6690   -2.4090 hc        1 MOL      0.129402
    152 N14        -6.8800   -2.6700    0.6700 n         1 MOL      0.013479
    153 C49        -6.0130   -3.1420    1.7640 c3        1 MOL      0.035794
    154 C50        -6.6430   -2.8680    3.1810 c         1 MOL      0.328246
    155 O20        -6.5670   -3.7010    4.0620 o         1 MOL     -0.487425
    156 C51        -4.6580   -2.4250    1.7490 c3        1 MOL      0.409038
    157 C52        -3.5850   -3.0880    2.6230 c3        1 MOL     -0.362205
    158 C53        -2.9240   -4.2750    1.9030 c         1 MOL      0.701215
    159 O21        -1.7660   -4.1710    1.5830 o         1 MOL     -0.670532
    160 O22        -3.5800   -5.3500    1.7600 o         1 MOL     -0.670532
    161 H72        -6.6910   -1.7950    0.2130 hn        1 MOL     -0.016170
    162 H73        -5.9240   -4.2300    1.7190 h1        1 MOL      0.098004
    163 H74        -4.9050   -1.4110    2.0470 hc        1 MOL     -0.151928
    164 H75        -4.2580   -2.3720    0.7340 hc        1 MOL     -0.151928
    165 H76        -3.9180   -3.3960    3.6140 hc        1 MOL      0.080306
    166 H77        -2.7920   -2.3460    2.7250 hc        1 MOL      0.080306
    167 N15        -7.4850   -1.8590    3.3720 n         1 MOL     -0.158618
    168 C54        -8.0390   -1.4600    4.7280 c3        1 MOL     -0.024801
    169 H78        -7.6270   -2.1150    5.4960 h1        1 MOL      0.050202
    170 H79        -7.7620   -0.4280    4.9450 h1        1 MOL      0.050202
    171 H80        -9.1260   -1.5500    4.7190 h1        1 MOL      0.050202
    172 H81        -7.7590   -1.2570    2.6050 hn        1 MOL      0.080813
    173 Ca1        -0.1270   -3.8460   -2.2760 Ca        1 MOL      1.754163
    174 O23        -2.1460   -3.1010   -4.0320 oh        1 MOL     -0.835712
    175 H82        -2.2970   -2.1590   -4.1660 ho        1 MOL      0.414061
    176 H83        -2.2260   -3.4860   -4.9050 ho        1 MOL      0.414061
    177 O24        -0.5110   -1.1220   -2.3010 oh        1 MOL     -0.835712
    178 H84        -1.0520   -0.9240   -1.5420 ho        1 MOL      0.414061
    179 H85        -0.4010   -0.2850   -2.7530 ho        1 MOL      0.414061
    180 O25        -0.9890   -6.0160   -4.1000 oh        1 MOL     -0.835712
    181 H86        -0.9550   -5.7490   -5.0160 ho        1 MOL      0.414061
    182 H87        -1.8420   -6.4410   -3.9940 ho        1 MOL      0.414061
    183 O26        -0.6770   -2.4440    0.2230 oh        1 MOL     -0.835712
    184 H88        -1.0770   -3.2200    0.6130 ho        1 MOL      0.414061
    185 H89        -1.3040   -1.7390    0.3790 ho        1 MOL      0.414061
    186 O27         0.2320   -5.2430   -0.0630 oh        1 MOL     -0.835712
    187 H90         0.9240   -5.4620    0.5600 ho        1 MOL      0.414061
    188 H91        -0.5740   -5.5230    0.3540 ho        1 MOL      0.414061
    189 O28        -2.4290   -5.4320   -1.5230 oh        1 MOL     -0.835712
    190 H92        -3.1720   -5.0430   -1.9770 ho        1 MOL      0.414061
    191 H93        -2.8020   -6.1610   -1.0290 ho        1 MOL      0.414061
    192 O29         0.9010   -2.6470   -4.6380 oh        1 MOL     -0.835712
    193 H94         1.8160   -2.3830   -4.6430 ho        1 MOL      0.414061
    194 H95         0.5510   -2.3270   -5.4690 ho        1 MOL      0.414061
@<TRIPOS>BOND
     1    1    2 1   
     2    1    4 1   
     3    1    5 1   
     4    1    6 1   
     5    2    3 2   
     6    2    7 1   
     7    7    8 1   
     8    7   15 1   
     9    8    9 1   
    10    8   11 1   
    11    8   16 1   
    12    9   10 2   
    13    9   19 1   
    14   11   12 1   
    15   11   17 1   
    16   11   18 1   
    17   12   13 1   
    18   12   14 1   
    19   19   20 1   
    20   19   28 1   
    21   20   21 1   
    22   20   23 1   
    23   20   29 1   
    24   21   22 2   
    25   21   41 1   
    26   23   24 1   
    27   23   30 1   
    28   23   31 1   
    29   24   25 1   
    30   24   32 1   
    31   24   33 1   
    32   25   26 1   
    33   25   34 1   
    34   25   35 1   
    35   26   27 1   
    36   26   36 1   
    37   26   37 1   
    38   27   38 1   
    39   27   39 1   
    40   27   40 1   
    41   41   42 1   
    42   41   49 1   
    43   42   43 1   
    44   42   45 1   
    45   42   50 1   
    46   43   44 2   
    47   43   53 1   
    48   45   46 1   
    49   45   51 1   
    50   45   52 1   
    51   46   47 1   
    52   46   48 1   
    53   53   54 1   
    54   53   57 1   
    55   54   55 1   
    56   54   58 1   
    57   54   59 1   
    58   55   56 2   
    59   55   60 1   
    60   60   61 1   
    61   60   68 1   
    62   61   62 1   
    63   61   64 1   
    64   61   69 1   
    65   62   63 2   
    66   62   74 1   
    67   64   65 1   
    68   64   70 1   
    69   64   71 1   
    70   65   66 1   
    71   65   67 2   
    72   66   72 1   
    73   66   73 1   
    74   74   75 1   
    75   74   78 1   
    76   75   76 1   
    77   75   79 1   
    78   75   80 1   
    79   76   77 2   
    80   76   81 1   
    81   81   82 1   
    82   81   93 1   
    83   82   83 1   
    84   82   85 1   
    85   82   94 1   
    86   83   84 2   
    87   83  102 1   
    88   85   86 1   
    89   85   95 1   
    90   85   96 1   
    91   86   87 ar  
    92   86   88 ar  
    93   87   89 ar  
    94   87   97 1   
    95   88   90 ar  
    96   88   98 1   
    97   89   91 ar  
    98   89   99 1   
    99   90   91 ar  
   100   90  100 1   
   101   91   92 1   
   102   92  101 1   
   103  102  103 1   
   104  102  110 1   
   105  103  104 1   
   106  103  106 1   
   107  103  111 1   
   108  104  105 2   
   109  104  121 1   
   110  106  107 1   
   111  106  108 1   
   112  106  112 1   
   113  107  109 1   
   114  107  113 1   
   115  107  114 1   
   116  108  115 1   
   117  108  116 1   
   118  108  117 1   
   119  109  118 1   
   120  109  119 1   
   121  109  120 1   
   122  121  122 1   
   123  121  127 1   
   124  122  123 1   
   125  122  125 1   
   126  122  128 1   
   127  123  124 2   
   128  123  132 1   
   129  125  126 1   
   130  125  129 1   
   131  125  130 1   
   132  126  131 1   
   133  132  133 1   
   134  132  137 1   
   135  133  134 1   
   136  133  136 1   
   137  133  138 1   
   138  134  135 2   
   139  134  142 1   
   140  136  139 1   
   141  136  140 1   
   142  136  141 1   
   143  142  143 1   
   144  142  147 1   
   145  143  144 1   
   146  143  146 1   
   147  143  148 1   
   148  144  145 2   
   149  144  152 1   
   150  146  149 1   
   151  146  150 1   
   152  146  151 1   
   153  152  153 1   
   154  152  161 1   
   155  153  154 1   
   156  153  156 1   
   157  153  162 1   
   158  154  155 2   
   159  154  167 1   
   160  156  157 1   
   161  156  163 1   
   162  156  164 1   
   163  157  158 1   
   164  157  165 1   
   165  157  166 1   
   166  158  159 1   
   167  158  160 1   
   168  167  168 1   
   169  167  172 1   
   170  168  169 1   
   171  168  170 1   
   172  168  171 1   
   173  174  175 1   
   174  174  176 1   
   175  177  178 1   
   176  177  179 1   
   177  180  181 1   
   178  180  182 1   
   179  183  184 1   
   180  183  185 1   
   181  186  187 1   
   182  186  188 1   
   183  189  190 1   
   184  189  191 1   
   185  192  193 1   
   186  192  194 1   
@<TRIPOS>SUBSTRUCTURE
     1 MOL         1 TEMP              0 ****  ****    0 ROOT
