@<TRIPOS>MOLECULE
MOL
  192   187     1     0     0
SMALL
resp


@<TRIPOS>ATOM
      1 C1         -4.0640   -3.7880    2.7740 c3        1 MOL     -0.078939
      2 C2         -3.0260   -4.0750    1.7150 c         1 MOL      0.309462
      3 O1         -2.3920   -3.1370    1.2310 o         1 MOL     -0.368147
      4 H1         -3.8690   -2.8130    3.2200 hc        1 MOL      0.033049
      5 H2         -5.0560   -3.7880    2.3220 hc        1 MOL      0.033049
      6 H3         -4.0180   -4.5560    3.5470 hc        1 MOL      0.033049
      7 N1         -2.8550   -5.3490    1.2470 n         1 MOL     -0.365651
      8 C3         -2.2470   -5.6250   -0.0550 c3        1 MOL     -0.186749
      9 C4         -0.7510   -5.3470   -0.1210 c         1 MOL      0.747924
     10 O2         -0.2050   -5.0480   -1.1630 o         1 MOL     -0.561060
     11 C5         -3.0020   -4.9390   -1.2790 c3        1 MOL     -0.102197
     12 C6         -4.4980   -5.0740   -1.1210 c         1 MOL      0.798767
     13 O3         -5.0920   -6.1730   -1.2420 o         1 MOL     -0.763350
     14 O4         -5.1330   -3.9970   -1.0080 o         1 MOL     -0.763350
     15 H4         -3.3420   -6.1600    1.6010 hn        1 MOL      0.291856
     16 H5         -2.3660   -6.6960   -0.2060 h1        1 MOL      0.108355
     17 H6         -2.7570   -5.3680   -2.2490 hc        1 MOL      0.066249
     18 H7         -2.7880   -3.8820   -1.4190 hc        1 MOL      0.066249
     19 N2         -0.0760   -5.3710    1.0230 n         1 MOL     -0.590531
     20 C7          1.2750   -4.8740    1.2610 c3        1 MOL      0.015687
     21 C8          2.4060   -5.6770    0.4730 c         1 MOL      0.415604
     22 O5          2.1300   -6.8630    0.2740 o         1 MOL     -0.532364
     23 C9          1.4890   -4.6870    2.7850 c3        1 MOL      0.173682
     24 C10         1.4220   -6.0680    3.5780 c3        1 MOL     -0.040475
     25 C11         0.4380   -3.7820    3.3990 c3        1 MOL     -0.365069
     26 C12         1.9300   -5.8370    5.0010 c3        1 MOL     -0.180564
     27 H8         -0.6580   -5.6300    1.8060 hn        1 MOL      0.252003
     28 H9          1.2850   -3.8460    0.8820 h1        1 MOL      0.153359
     29 H10         2.4560   -4.2160    2.9840 hc        1 MOL      0.091427
     30 H11         2.2080   -6.6890    3.1460 hc        1 MOL      0.043452
     31 H12         0.4920   -6.6180    3.5140 hc        1 MOL      0.043452
     32 H13        -0.5460   -4.2510    3.4500 hc        1 MOL      0.080590
     33 H14         0.6890   -3.4740    4.4170 hc        1 MOL      0.080590
     34 H15         0.3900   -2.8740    2.8030 hc        1 MOL      0.080590
     35 H16         2.5180   -6.6830    5.3710 hc        1 MOL      0.032447
     36 H17         2.2820   -4.8270    5.1980 hc        1 MOL      0.032447
     37 H18         1.0450   -5.8690    5.6400 hc        1 MOL      0.032447
     38 N3          3.6050   -5.1300    0.1390 n         1 MOL     -0.448741
     39 C13         3.9380   -3.7040    0.1980 c3        1 MOL      0.022364
     40 C14         3.6240   -2.9460   -1.1380 c         1 MOL      0.316391
     41 O6          3.3960   -1.7140   -1.1720 o         1 MOL     -0.457579
     42 C15         5.3490   -3.4840    0.7790 c3        1 MOL     -0.394789
     43 C16         6.3080   -4.3290   -0.0360 c         1 MOL      0.741149
     44 O7          6.4200   -4.1420   -1.2460 o         1 MOL     -0.717965
     45 O8          6.9160   -5.3410    0.5180 o         1 MOL     -0.717965
     46 H19         4.2910   -5.7400   -0.2710 hn        1 MOL      0.337487
     47 H20         3.3290   -3.3460    1.0310 h1        1 MOL      0.086335
     48 H21         5.4520   -3.6090    1.8610 hc        1 MOL      0.112466
     49 H22         5.4960   -2.4070    0.6470 hc        1 MOL      0.112466
     50 N4          3.5920   -3.6190   -2.2890 n         1 MOL     -0.228732
     51 C17         3.6540   -2.9190   -3.6080 c3        1 MOL     -0.212322
     52 C18         5.0780   -2.3780   -3.8340 c         1 MOL      0.674631
     53 O9          5.7750   -2.8560   -4.6640 o         1 MOL     -0.584788
     54 H23         3.8840   -4.5840   -2.3150 hn        1 MOL      0.298145
     55 H24         3.0060   -2.0450   -3.6130 h1        1 MOL      0.099326
     56 H25         3.3490   -3.4970   -4.4880 h1        1 MOL      0.099326
     57 N5          5.5420   -1.3700   -3.0190 n         1 MOL     -0.392420
     58 C19         6.7270   -0.4970   -3.2510 c3        1 MOL      0.042821
     59 C20         7.6230   -0.2520   -1.9730 c         1 MOL      0.464009
     60 O10         8.7420    0.2450   -2.2270 o         1 MOL     -0.583794
     61 C21         6.4000    0.9040   -4.0000 c3        1 MOL     -0.276608
     62 C22         5.2000    1.5740   -3.3390 c         1 MOL      0.807810
     63 O11         5.3690    1.8180   -2.1640 o         1 MOL     -0.702103
     64 O12         4.1630    1.8370   -3.9360 o         1 MOL     -0.702103
     65 H26         4.8540   -1.0910   -2.3280 hn        1 MOL      0.252964
     66 H27         7.4300   -1.0060   -3.9140 h1        1 MOL      0.104334
     67 H28         6.2100    0.7470   -5.0600 hc        1 MOL      0.030382
     68 H29         7.2460    1.5860   -3.8610 hc        1 MOL      0.030382
     69 N6          7.2570   -0.7830   -0.7890 n         1 MOL     -0.146057
     70 C23         7.9470   -0.4470    0.5030 c3        1 MOL     -0.230310
     71 C24         7.6010    0.9730    0.9620 c         1 MOL      0.485958
     72 O13         7.8890    1.2000    2.1290 o         1 MOL     -0.568617
     73 H30         6.6350   -1.5760   -0.7890 hn        1 MOL      0.186264
     74 H31         8.9970   -0.6910    0.3420 h1        1 MOL      0.118002
     75 H32         7.5330   -1.2210    1.1520 h1        1 MOL      0.118002
     76 N7          7.1280    1.9160    0.1540 n         1 MOL     -0.007892
     77 C25         6.9190    3.3690    0.4190 c3        1 MOL      0.177795
     78 C26         6.2360    3.7260    1.7210 c         1 MOL      0.398049
     79 O14         6.3030    4.8140    2.2570 o         1 MOL     -0.530374
     80 C27         8.1740    4.1970   -0.0230 c3        1 MOL     -0.066138
     81 C28         8.6780    3.7120   -1.3450 c3        1 MOL      0.009560
     82 C29         9.6860    4.5480   -2.0210 c         1 MOL      0.600868
     83 N8         10.4970    4.1350   -2.9370 n         1 MOL     -0.761635
     84 O15         9.8710    5.7800   -1.7260 o         1 MOL     -0.600719
     85 H33         6.8260    1.6530   -0.7740 hn        1 MOL     -0.099958
     86 H34         6.1520    3.7100   -0.2770 h1        1 MOL      0.090719
     87 H35         8.9570    4.0310    0.7110 hc        1 MOL     -0.001467
     88 H36         7.8780    5.2470   -0.0530 hc        1 MOL     -0.001467
     89 H37         7.8650    3.5340   -2.0540 hc        1 MOL      0.040850
     90 H38         9.1920    2.7690   -1.1550 hc        1 MOL      0.040850
     91 H39        10.4420    3.1950   -3.2960 hn        1 MOL      0.345137
     92 H40        11.2670    4.6840   -3.2870 hn        1 MOL      0.345137
     93 N9          5.3990    2.8440    2.2090 n         1 MOL     -0.366408
     94 C30         4.5130    3.1210    3.3390 c3        1 MOL     -0.054291
     95 C31         3.0070    2.9290    2.9090 c         1 MOL      0.511462
     96 O16         2.0880    3.2150    3.7140 o         1 MOL     -0.606826
     97 C32         4.8750    2.3510    4.6250 c3        1 MOL      0.321544
     98 C33         4.5800    0.8160    4.5560 c3        1 MOL     -0.274312
     99 C34         6.3860    2.4230    5.0220 c3        1 MOL     -0.274312
    100 H41         5.3250    1.9730    1.6930 hn        1 MOL      0.260985
    101 H42         4.5980    4.1650    3.6230 h1        1 MOL      0.101488
    102 H43         4.3420    2.8320    5.4490 hc        1 MOL     -0.050438
    103 H44         4.9940    0.4240    5.4870 hc        1 MOL      0.056295
    104 H45         3.5070    0.6990    4.6750 hc        1 MOL      0.056295
    105 H46         5.0290    0.4340    3.6410 hc        1 MOL      0.056295
    106 H47         6.6930    3.4720    5.0660 hc        1 MOL      0.056295
    107 H48         6.4730    2.1240    6.0660 hc        1 MOL      0.056295
    108 H49         7.0330    1.7900    4.4040 hc        1 MOL      0.056295
    109 N10         2.6710    2.2600    1.8360 n         1 MOL     -0.363871
    110 C35         1.3710    1.7190    1.4950 c3        1 MOL      0.160491
    111 C36         0.7100    2.2780    0.1740 c         1 MOL      0.506333
    112 O17         1.4100    2.5230   -0.7870 o         1 MOL     -0.485752
    113 C37         1.5000    0.2130    1.3390 c3        1 MOL      0.014762
    114 C38         1.9360   -0.4910    2.6090 c         1 MOL      0.497912
    115 N11         1.2370   -0.1480    3.7180 n         1 MOL     -0.714936
    116 O18         2.7850   -1.3320    2.6040 o         1 MOL     -0.497517
    117 H50         3.4120    2.0380    1.1930 hn        1 MOL      0.224126
    118 H51         0.6920    1.9310    2.3290 h1        1 MOL      0.044257
    119 H52         2.2240   -0.1340    0.6060 hc        1 MOL      0.028133
    120 H53         0.5240   -0.2500    1.1620 hc        1 MOL      0.028133
    121 H54         0.3130    0.2340    3.6010 hn        1 MOL      0.336539
    122 H55         1.4750   -0.6890    4.5420 hn        1 MOL      0.336539
    123 N12        -0.5870    2.6230    0.1940 n         1 MOL     -0.515431
    124 C39        -1.2500    3.4010   -0.9010 c3        1 MOL      0.216561
    125 C40        -2.6340    3.9810   -0.3410 c         1 MOL      0.615985
    126 O19        -3.0740    3.7000    0.7320 o         1 MOL     -0.529699
    127 C41        -1.3440    2.5330   -2.1550 c3        1 MOL     -0.327520
    128 C42        -2.4260    1.5260   -2.0420 ca        1 MOL      0.145660
    129 C43        -2.2410    0.3810   -1.3050 ca        1 MOL     -0.201152
    130 C44        -3.6850    1.7120   -2.7190 ca        1 MOL     -0.201152
    131 C45        -3.2380   -0.6040   -1.2250 ca        1 MOL     -0.219300
    132 C46        -4.7090    0.7440   -2.6740 ca        1 MOL     -0.219300
    133 C47        -4.4610   -0.4900   -1.9800 ca        1 MOL      0.302665
    134 O20        -5.4370   -1.3350   -1.8080 oh        1 MOL     -0.589088
    135 H56        -1.1280    2.4090    1.0230 hn        1 MOL      0.238124
    136 H57        -0.6230    4.2810   -1.0630 h1        1 MOL      0.056599
    137 H58        -0.4140    2.0030   -2.3360 hc        1 MOL      0.123203
    138 H59        -1.5800    3.2830   -2.9020 hc        1 MOL      0.123203
    139 H60        -1.3760    0.3240   -0.6740 ha        1 MOL      0.144027
    140 H61        -3.8530    2.6270   -3.2730 ha        1 MOL      0.144027
    141 H62        -3.0970   -1.5080   -0.6350 ha        1 MOL      0.117183
    142 H63        -5.6950    0.8920   -3.0830 ha        1 MOL      0.117183
    143 H64        -5.1660   -2.1780   -1.4610 ho        1 MOL      0.460093
    144 N13        -3.3600    4.8280   -1.1160 n         1 MOL     -0.759767
    145 C48        -4.6570    5.2930   -0.6870 c3        1 MOL      0.471233
    146 C49        -5.8510    4.8210   -1.6750 c         1 MOL      0.489701
    147 O21        -5.8540    5.1930   -2.8970 o         1 MOL     -0.577950
    148 C50        -4.6710    6.8120   -0.5360 c3        1 MOL     -0.242172
    149 C51        -6.0690    7.3990   -0.3310 c3        1 MOL     -0.166515
    150 C52        -6.0040    8.8190    0.3010 c         1 MOL      0.708497
    151 O22        -6.9260    9.2540    0.9980 o         1 MOL     -0.733563
    152 O23        -5.0260    9.5320   -0.0110 o         1 MOL     -0.733563
    153 H65        -3.0040    5.1360   -2.0020 hn        1 MOL      0.341228
    154 H66        -4.8310    4.8730    0.2950 h1        1 MOL     -0.031630
    155 H67        -4.2650    7.3130   -1.4180 hc        1 MOL      0.069265
    156 H68        -3.9930    7.1260    0.2560 hc        1 MOL      0.069265
    157 H69        -6.6540    6.7860    0.3610 hc        1 MOL      0.034233
    158 H70        -6.6540    7.3520   -1.2400 hc        1 MOL      0.034233
    159 N14        -6.7770    3.9080   -1.2750 n         1 MOL     -0.511393
    160 C53        -6.9260    3.2360    0.0100 c3        1 MOL     -0.063384
    161 C54        -7.8980    4.0060    0.9520 c         1 MOL      0.476702
    162 O24        -8.8870    4.6340    0.6090 o         1 MOL     -0.523824
    163 C55        -7.4670    1.8120   -0.3120 c3        1 MOL      0.380111
    164 C56        -7.7410    0.9780    0.9570 c3        1 MOL     -0.282907
    165 C57        -7.8320   -0.4920    0.6050 c         1 MOL      0.785480
    166 O25        -6.9280   -1.2840    0.9530 o         1 MOL     -0.783009
    167 O26        -8.6960   -0.9120   -0.1990 o         1 MOL     -0.783009
    168 H71        -7.5120    3.8050   -1.9560 hn        1 MOL      0.304881
    169 H72        -5.9240    3.1640    0.4200 h1        1 MOL      0.119593
    170 H73        -6.8080    1.2370   -0.9530 hc        1 MOL     -0.068412
    171 H74        -8.3710    1.9240   -0.9020 hc        1 MOL     -0.068412
    172 H75        -8.6520    1.3290    1.4480 hc        1 MOL      0.029504
    173 H76        -6.8410    1.1430    1.5450 hc        1 MOL      0.029504
    174 N15        -7.3760    4.1260    2.1380 n         1 MOL     -0.290296
    175 C58        -7.9150    4.8470    3.3400 c3        1 MOL     -0.100126
    176 H77        -7.3060    5.7300    3.5360 h1        1 MOL      0.074572
    177 H78        -8.9450    5.1500    3.1520 h1        1 MOL      0.074572
    178 H79        -7.8830    4.1850    4.2060 h1        1 MOL      0.074572
    179 H80        -6.4930    3.6440    2.2380 hn        1 MOL      0.232556
    180 Ca1        -7.6390   -3.3370   -0.5450 Ca        1 MOL      1.756981
    181 O27       -10.1090   -3.4910   -1.8530 oh        1 MOL     -0.895729
    182 H81       -10.2070   -3.8050   -2.7500 ho        1 MOL      0.431214
    183 H82       -11.0130   -3.3400   -1.5520 ho        1 MOL      0.431214
    184 O28        -7.7430   -6.0590   -1.0200 oh        1 MOL     -0.895729
    185 H83        -6.7870   -6.1240   -1.0360 ho        1 MOL      0.431214
    186 H84        -8.0390   -6.8210   -1.5050 ho        1 MOL      0.431214
    187 O29        -9.6690   -3.7690    1.3660 oh        1 MOL     -0.895729
    188 H85       -10.3510   -3.1420    1.1380 ho        1 MOL      0.431214
    189 H86       -10.0230   -4.2520    2.1070 ho        1 MOL      0.431214
    190 O30        -7.4490   -3.5610   -3.2110 oh        1 MOL     -0.895729
    191 H87        -7.0050   -3.0370   -3.8840 ho        1 MOL      0.431214
    192 H88        -8.2040   -3.9290   -3.6470 ho        1 MOL      0.431214
@<TRIPOS>BOND
     1    1    2 1   
     2    1    4 1   
     3    1    5 1   
     4    1    6 1   
     5    2    3 2   
     6    2    7 1   
     7    7    8 1   
     8    7   15 1   
     9    8    9 1   
    10    8   11 1   
    11    8   16 1   
    12    9   10 2   
    13    9   19 1   
    14   11   12 1   
    15   11   17 1   
    16   11   18 1   
    17   12   13 1   
    18   12   14 1   
    19   19   20 1   
    20   19   27 1   
    21   20   21 1   
    22   20   23 1   
    23   20   28 1   
    24   21   22 2   
    25   21   38 1   
    26   23   24 1   
    27   23   25 1   
    28   23   29 1   
    29   24   26 1   
    30   24   30 1   
    31   24   31 1   
    32   25   32 1   
    33   25   33 1   
    34   25   34 1   
    35   26   35 1   
    36   26   36 1   
    37   26   37 1   
    38   38   39 1   
    39   38   46 1   
    40   39   40 1   
    41   39   42 1   
    42   39   47 1   
    43   40   41 2   
    44   40   50 1   
    45   42   43 1   
    46   42   48 1   
    47   42   49 1   
    48   43   44 1   
    49   43   45 1   
    50   50   51 1   
    51   50   54 1   
    52   51   52 1   
    53   51   55 1   
    54   51   56 1   
    55   52   53 2   
    56   52   57 1   
    57   57   58 1   
    58   57   65 1   
    59   58   59 1   
    60   58   61 1   
    61   58   66 1   
    62   59   60 2   
    63   59   69 1   
    64   61   62 1   
    65   61   67 1   
    66   61   68 1   
    67   62   63 1   
    68   62   64 1   
    69   69   70 1   
    70   69   73 1   
    71   70   71 1   
    72   70   74 1   
    73   70   75 1   
    74   71   72 2   
    75   71   76 1   
    76   76   77 1   
    77   76   85 1   
    78   77   78 1   
    79   77   80 1   
    80   77   86 1   
    81   78   79 2   
    82   78   93 1   
    83   80   81 1   
    84   80   87 1   
    85   80   88 1   
    86   81   82 1   
    87   81   89 1   
    88   81   90 1   
    89   82   83 1   
    90   82   84 2   
    91   83   91 1   
    92   83   92 1   
    93   93   94 1   
    94   93  100 1   
    95   94   95 1   
    96   94   97 1   
    97   94  101 1   
    98   95   96 2   
    99   95  109 1   
   100   97   98 1   
   101   97   99 1   
   102   97  102 1   
   103   98  103 1   
   104   98  104 1   
   105   98  105 1   
   106   99  106 1   
   107   99  107 1   
   108   99  108 1   
   109  109  110 1   
   110  109  117 1   
   111  110  111 1   
   112  110  113 1   
   113  110  118 1   
   114  111  112 2   
   115  111  123 1   
   116  113  114 1   
   117  113  119 1   
   118  113  120 1   
   119  114  115 1   
   120  114  116 2   
   121  115  121 1   
   122  115  122 1   
   123  123  124 1   
   124  123  135 1   
   125  124  125 1   
   126  124  127 1   
   127  124  136 1   
   128  125  126 2   
   129  125  144 1   
   130  127  128 1   
   131  127  137 1   
   132  127  138 1   
   133  128  129 ar  
   134  128  130 ar  
   135  129  131 ar  
   136  129  139 1   
   137  130  132 ar  
   138  130  140 1   
   139  131  133 ar  
   140  131  141 1   
   141  132  133 ar  
   142  132  142 1   
   143  133  134 1   
   144  134  143 1   
   145  144  145 1   
   146  144  153 1   
   147  145  146 1   
   148  145  148 1   
   149  145  154 1   
   150  146  147 2   
   151  146  159 1   
   152  148  149 1   
   153  148  155 1   
   154  148  156 1   
   155  149  150 1   
   156  149  157 1   
   157  149  158 1   
   158  150  151 1   
   159  150  152 1   
   160  159  160 1   
   161  159  168 1   
   162  160  161 1   
   163  160  163 1   
   164  160  169 1   
   165  161  162 2   
   166  161  174 1   
   167  163  164 1   
   168  163  170 1   
   169  163  171 1   
   170  164  165 1   
   171  164  172 1   
   172  164  173 1   
   173  165  166 1   
   174  165  167 1   
   175  174  175 1   
   176  174  179 1   
   177  175  176 1   
   178  175  177 1   
   179  175  178 1   
   180  181  182 1   
   181  181  183 1   
   182  184  185 1   
   183  184  186 1   
   184  187  188 1   
   185  187  189 1   
   186  190  191 1   
   187  190  192 1   
@<TRIPOS>SUBSTRUCTURE
     1 MOL         1 TEMP              0 ****  ****    0 ROOT
