@<TRIPOS>MOLECULE
MOL
  181   177     1     0     0
SMALL
resp


@<TRIPOS>ATOM
      1 C1         -7.2400   -6.2270   -4.5440 c3        1 MOL     -0.285176
      2 C2         -6.4020   -5.0490   -3.9890 c         1 MOL      0.645245
      3 O1         -5.2680   -4.7860   -4.4020 o         1 MOL     -0.556618
      4 H1         -6.5740   -7.0360   -4.8470 hc        1 MOL      0.069769
      5 H2         -7.9190   -6.5870   -3.7700 hc        1 MOL      0.069769
      6 H3         -7.8170   -5.8900   -5.4060 hc        1 MOL      0.069769
      7 N1         -6.8020   -4.2540   -2.9940 n         1 MOL     -0.639529
      8 C3         -8.0200   -4.5240   -2.1490 c3        1 MOL      0.329113
      9 C4         -7.5270   -4.7580   -0.6730 c         1 MOL      0.477506
     10 O2         -6.3480   -5.0500   -0.4210 o         1 MOL     -0.476058
     11 C5         -8.9690   -3.2860   -2.2720 c3        1 MOL     -0.131329
     12 C6         -8.4420   -1.9420   -1.8090 c         1 MOL      0.532624
     13 O3         -7.9780   -1.1220   -2.6300 o         1 MOL     -0.641339
     14 O4         -8.5270   -1.6910   -0.5830 o         1 MOL     -0.641339
     15 H4         -6.3120   -3.3910   -2.7840 hn        1 MOL      0.427911
     16 H5         -8.6220   -5.3570   -2.5230 h1        1 MOL     -0.016144
     17 H6         -9.8950   -3.5500   -1.7610 hc        1 MOL      0.001843
     18 H7         -9.3320   -3.2160   -3.3010 hc        1 MOL      0.001843
     19 N2         -8.4500   -4.6370    0.2580 n         1 MOL     -0.724075
     20 C7         -8.3140   -4.7640    1.7220 c3        1 MOL      0.525166
     21 C8         -7.3160   -3.7690    2.3500 c         1 MOL      0.211638
     22 O5         -6.9840   -3.9120    3.5240 o         1 MOL     -0.532777
     23 C9         -8.1250   -6.2430    2.1500 c3        1 MOL     -0.385531
     24 H8         -9.3880   -4.5760   -0.1180 hn        1 MOL      0.308687
     25 H9         -9.2780   -4.4660    2.1420 h1        1 MOL     -0.017934
     26 H10        -8.8310   -6.9510    1.7200 hc        1 MOL      0.095763
     27 H11        -7.0700   -6.5090    2.0610 hc        1 MOL      0.095763
     28 H12        -8.4410   -6.2340    3.1910 hc        1 MOL      0.095763
     29 N3         -6.9180   -2.7200    1.6240 n         1 MOL      0.144694
     30 C10        -5.8160   -1.7850    1.9700 c3        1 MOL     -0.081464
     31 C11        -6.3170   -0.4060    2.4480 c         1 MOL      0.467617
     32 O6         -7.4370    0.0130    2.1050 o         1 MOL     -0.611948
     33 C12        -4.6290   -1.8510    0.9860 c3        1 MOL     -0.063957
     34 C13        -4.8550   -1.3210   -0.4270 c         1 MOL      0.678747
     35 O7         -4.1790   -1.8530   -1.3370 o         1 MOL     -0.692500
     36 O8         -5.6180   -0.3380   -0.6160 o         1 MOL     -0.692500
     37 H13        -7.4450   -2.4760    0.7990 hn        1 MOL     -0.011492
     38 H14        -5.3900   -2.1140    2.9200 h1        1 MOL      0.031522
     39 H15        -4.4030   -2.9270    0.9620 hc        1 MOL      0.063109
     40 H16        -3.7210   -1.3790    1.3640 hc        1 MOL      0.063109
     41 N4         -5.3700    0.3750    2.9800 n         1 MOL     -0.314015
     42 C14        -5.5970    1.7980    3.2420 c3        1 MOL     -0.075690
     43 C15        -5.3920    2.7200    1.9640 c         1 MOL      0.418491
     44 O9         -5.8410    2.3860    0.8700 o         1 MOL     -0.550252
     45 H17        -4.4530    0.0150    3.1650 hn        1 MOL      0.306913
     46 H18        -5.0310    2.1850    4.0850 h1        1 MOL      0.069898
     47 H19        -6.6460    1.9280    3.4940 h1        1 MOL      0.069898
     48 N5         -4.6450    3.8300    2.1970 n         1 MOL     -0.216271
     49 C16        -4.3180    4.9460    1.2760 c3        1 MOL     -0.068220
     50 C17        -2.8200    5.2180    1.2590 c         1 MOL      0.656164
     51 O10        -2.0930    5.0900    2.2330 o         1 MOL     -0.489442
     52 C18        -5.1070    6.1870    1.5780 c3        1 MOL     -0.295314
     53 C19        -6.6430    5.9740    1.4930 c         1 MOL      0.673414
     54 N6         -7.2180    5.9550    2.6780 n         1 MOL     -0.727691
     55 O11        -7.2760    5.9700    0.4760 o         1 MOL     -0.544141
     56 H20        -4.1960    3.8620    3.0930 hn        1 MOL      0.212816
     57 H21        -4.6040    4.7080    0.2550 h1        1 MOL      0.135516
     58 H22        -4.6330    6.9780    0.9990 hc        1 MOL      0.095471
     59 H23        -4.8860    6.5180    2.5870 hc        1 MOL      0.095471
     60 H24        -6.7210    5.7930    3.5410 hn        1 MOL      0.330726
     61 H25        -8.2180    5.9200    2.7460 hn        1 MOL      0.330726
     62 N7         -2.3230    5.5070    0.0180 n         1 MOL     -0.652887
     63 C20        -0.9630    5.2270   -0.5590 c3        1 MOL      0.118571
     64 C21        -0.4890    3.7800   -0.4950 c         1 MOL      0.514391
     65 O12        -1.2670    2.8260   -0.2190 o         1 MOL     -0.503804
     66 H26        -2.9540    5.8020   -0.7100 hn        1 MOL      0.318758
     67 H27        -0.2990    6.0150   -0.2250 h1        1 MOL      0.068299
     68 H28        -0.9700    5.4350   -1.6320 h1        1 MOL      0.068299
     69 N8          0.7460    3.4370   -0.8430 n         1 MOL     -0.468761
     70 C22         1.8490    4.3140   -1.3710 c3        1 MOL      0.115810
     71 C23         2.6410    3.5580   -2.3550 c         1 MOL      0.302112
     72 O13         2.9560    4.0870   -3.4370 o         1 MOL     -0.493539
     73 C24         2.7950    4.8430   -0.3170 c3        1 MOL      0.284477
     74 C25         3.7540    5.9260   -0.8190 c3        1 MOL     -0.382778
     75 O14         2.0610    5.4120    0.7330 oh        1 MOL     -0.656979
     76 H29         1.0070    2.5350   -0.4800 hn        1 MOL      0.316507
     77 H30         1.5180    5.1970   -1.9100 h1        1 MOL      0.056301
     78 H31         3.3330    3.9920    0.1210 h1        1 MOL      0.034484
     79 H32         2.6870    5.7110    1.4030 ho        1 MOL      0.417386
     80 H33         4.1800    6.4610    0.0380 hc        1 MOL      0.104549
     81 H34         4.5080    5.5480   -1.5030 hc        1 MOL      0.104549
     82 H35         3.1270    6.6330   -1.3630 hc        1 MOL      0.104549
     83 N9          2.9400    2.2900   -2.0800 n         1 MOL     -0.255580
     84 C26         3.7930    1.3050   -2.8330 c3        1 MOL      0.259055
     85 C27         5.1090    2.0360   -3.2550 c         1 MOL      0.441418
     86 O15         5.2940    2.2130   -4.4680 o         1 MOL     -0.531884
     87 C28         2.9490    0.7300   -4.0060 c3        1 MOL      0.030851
     88 C29         1.6340    0.0820   -3.5380 c3        1 MOL     -0.098714
     89 C30         3.7870   -0.2810   -4.7930 c3        1 MOL     -0.110652
     90 C31         1.8060   -1.0910   -2.5950 c3        1 MOL     -0.209181
     91 H36         2.5920    1.9620   -1.1920 hn        1 MOL      0.194066
     92 H37         4.1000    0.5720   -2.0890 h1        1 MOL      0.026300
     93 H38         2.7630    1.5160   -4.7310 hc        1 MOL      0.026814
     94 H39         1.1300   -0.3500   -4.4070 hc        1 MOL      0.034990
     95 H40         0.9980    0.8750   -3.1650 hc        1 MOL      0.034990
     96 H41         3.2040   -1.0710   -5.2690 hc        1 MOL      0.018164
     97 H42         4.3960    0.2060   -5.5480 hc        1 MOL      0.018164
     98 H43         4.4320   -0.8010   -4.0890 hc        1 MOL      0.018164
     99 H44         2.3110   -1.9100   -3.1070 hc        1 MOL      0.071793
    100 H45         2.4040   -0.9120   -1.6990 hc        1 MOL      0.071793
    101 H46         0.7950   -1.3120   -2.2410 hc        1 MOL      0.071793
    102 N10         6.0520    2.4820   -2.4090 n         1 MOL     -0.442760
    103 C32         6.1320    2.1610   -1.0200 c3        1 MOL      0.277427
    104 C33         6.7570    0.7770   -0.8960 c         1 MOL      0.364955
    105 O16         6.0530   -0.1850   -0.5630 o         1 MOL     -0.508604
    106 C34         6.8870    3.3160   -0.2230 c3        1 MOL     -0.271337
    107 C35         8.3130    3.6880   -0.6490 c         1 MOL      0.724390
    108 O17         9.0090    4.4170    0.0990 o         1 MOL     -0.696908
    109 O18         8.8000    3.2830   -1.6990 o         1 MOL     -0.696908
    110 H47         6.8890    2.9060   -2.7870 hn        1 MOL      0.271345
    111 H48         5.1390    2.0360   -0.6000 h1        1 MOL     -0.044904
    112 H49         6.7930    3.0970    0.8360 hc        1 MOL      0.063317
    113 H50         6.2900    4.2260   -0.1890 hc        1 MOL      0.063317
    114 N11         8.0780    0.5960   -1.0390 n         1 MOL     -0.496151
    115 C36         8.7480   -0.5240   -0.3690 c3        1 MOL      0.498308
    116 C37         9.1680   -0.0920    1.0880 c         1 MOL      0.374328
    117 O19         9.9420    0.8220    1.1960 o         1 MOL     -0.485555
    118 C38        10.0270   -0.8630   -1.1560 c3        1 MOL     -0.322285
    119 C39        10.4550   -2.3220   -0.9420 ca        1 MOL      0.154109
    120 C40        11.6920   -2.5800   -0.4440 ca        1 MOL     -0.133901
    121 C41         9.7830   -3.3060   -1.6630 ca        1 MOL     -0.133901
    122 C42        12.2930   -3.8390   -0.4750 ca        1 MOL     -0.147066
    123 C43        10.3370   -4.5880   -1.7560 ca        1 MOL     -0.147066
    124 C44        11.5910   -4.8630   -1.1160 ca        1 MOL     -0.114884
    125 H51         8.6590    1.3440   -1.3970 hn        1 MOL      0.279285
    126 H52         8.1500   -1.4310   -0.3360 h1        1 MOL     -0.077113
    127 H53        10.8350   -0.1620   -0.9450 hc        1 MOL      0.100422
    128 H54         9.6760   -0.7170   -2.1740 hc        1 MOL      0.100422
    129 H55        12.2610   -1.7400   -0.0700 ha        1 MOL      0.104752
    130 H56         8.8720   -3.0330   -2.1700 ha        1 MOL      0.104752
    131 H57        13.2460   -4.1200   -0.0390 ha        1 MOL      0.109178
    132 H58         9.8210   -5.3980   -2.2520 ha        1 MOL      0.109178
    133 H59        12.0570   -5.8310   -1.2100 ha        1 MOL      0.094558
    134 N12         8.9040   -0.8690    2.1970 n         1 MOL     -0.269059
    135 C45         7.9660   -1.9860    2.2190 c3        1 MOL      0.236309
    136 C46         6.5020   -1.5300    2.1510 c         1 MOL      0.634153
    137 O20         6.1990   -0.3060    2.3100 o         1 MOL     -0.536225
    138 C47         8.1340   -2.7030    3.5360 c3        1 MOL     -0.076369
    139 C48         8.7030   -1.6600    4.4950 c3        1 MOL     -0.047711
    140 C49         9.3440   -0.6500    3.5300 c3        1 MOL      0.109731
    141 H60         8.3010   -2.6350    1.4080 h1        1 MOL     -0.090774
    142 H61         7.2000   -3.1060    3.9410 hc        1 MOL      0.009752
    143 H62         8.8440   -3.5290    3.4690 hc        1 MOL      0.009752
    144 H63         7.8280   -1.2200    4.9780 hc        1 MOL      0.021026
    145 H64         9.4830   -1.9790    5.1810 hc        1 MOL      0.021026
    146 H65         9.2090    0.3710    3.9040 h1        1 MOL      0.010476
    147 H66        10.4130   -0.8860    3.5310 h1        1 MOL      0.010476
    148 N13         5.6890   -2.5090    1.8060 n         1 MOL     -0.364982
    149 C50         4.3220   -2.4300    1.3030 c3        1 MOL      0.055419
    150 C51         3.7890   -3.7590    0.7330 c         1 MOL      0.468904
    151 O21         2.6260   -4.0810    0.9930 o         1 MOL     -0.519127
    152 C52         3.2990   -1.9410    2.3500 c3        1 MOL     -0.018975
    153 C53         3.4270   -2.5780    3.7340 c3        1 MOL      0.123401
    154 C54         2.3270   -2.2010    4.6740 c         1 MOL      0.562255
    155 O22         1.1440   -2.3660    4.2110 o         1 MOL     -0.683721
    156 O23         2.6420   -1.6240    5.7560 o         1 MOL     -0.683721
    157 H67         6.1680   -3.3940    1.8630 hn        1 MOL      0.170214
    158 H68         4.2610   -1.7430    0.4470 h1        1 MOL      0.031827
    159 H69         2.2750   -2.1540    2.0380 hc        1 MOL      0.018294
    160 H70         3.4670   -0.8710    2.4800 hc        1 MOL      0.018294
    161 H71         4.3930   -2.2940    4.1630 hc        1 MOL     -0.074686
    162 H72         3.4700   -3.6670    3.6320 hc        1 MOL     -0.074686
    163 N14         4.4940   -4.5700   -0.0490 n         1 MOL     -0.368104
    164 C55         5.7060   -4.3960   -0.8830 c3        1 MOL      0.070253
    165 H73         5.5280   -4.8130   -1.8740 h1        1 MOL      0.019883
    166 H74         5.9370   -3.3340   -0.9720 h1        1 MOL      0.019883
    167 H75         6.5450   -4.9130   -0.4170 h1        1 MOL      0.019883
    168 H76         4.0160   -5.4360   -0.2530 hn        1 MOL      0.248155
    169 Ca1        -7.9030    1.0270   -0.4230 Ca        1 MOL      1.789479
    170 O24        -9.1420    3.3970   -0.3890 oh        1 MOL     -0.875896
    171 H77        -8.8510    4.3080   -0.2510 ho        1 MOL      0.419477
    172 H78       -10.0950    3.4570   -0.4110 ho        1 MOL      0.419477
    173 O25        -7.2780    2.3630   -2.5300 oh        1 MOL     -0.875896
    174 H79        -7.0570    3.2900   -2.6050 ho        1 MOL      0.419477
    175 H80        -7.1760    2.0240   -3.4200 ho        1 MOL      0.419477
    176 O26       -10.1660    0.7530   -1.9040 oh        1 MOL     -0.875896
    177 H81        -9.9660    0.0780   -2.5580 ho        1 MOL      0.419477
    178 H82       -11.1070    0.8870   -1.9720 ho        1 MOL      0.419477
    179 O27       -10.0290    0.7640    1.1820 oh        1 MOL     -0.875896
    180 H83       -10.9070    1.1430    1.1800 ho        1 MOL      0.419477
    181 H84        -9.9680    0.2800    1.9990 ho        1 MOL      0.419477
@<TRIPOS>BOND
     1    1    2 1   
     2    1    4 1   
     3    1    5 1   
     4    1    6 1   
     5    2    3 2   
     6    2    7 1   
     7    7    8 1   
     8    7   15 1   
     9    8    9 1   
    10    8   11 1   
    11    8   16 1   
    12    9   10 2   
    13    9   19 1   
    14   11   12 1   
    15   11   17 1   
    16   11   18 1   
    17   12   13 1   
    18   12   14 1   
    19   19   20 1   
    20   19   24 1   
    21   20   21 1   
    22   20   23 1   
    23   20   25 1   
    24   21   22 2   
    25   21   29 1   
    26   23   26 1   
    27   23   27 1   
    28   23   28 1   
    29   29   30 1   
    30   29   37 1   
    31   30   31 1   
    32   30   33 1   
    33   30   38 1   
    34   31   32 2   
    35   31   41 1   
    36   33   34 1   
    37   33   39 1   
    38   33   40 1   
    39   34   35 1   
    40   34   36 1   
    41   41   42 1   
    42   41   45 1   
    43   42   43 1   
    44   42   46 1   
    45   42   47 1   
    46   43   44 2   
    47   43   48 1   
    48   48   49 1   
    49   48   56 1   
    50   49   50 1   
    51   49   52 1   
    52   49   57 1   
    53   50   51 2   
    54   50   62 1   
    55   52   53 1   
    56   52   58 1   
    57   52   59 1   
    58   53   54 1   
    59   53   55 2   
    60   54   60 1   
    61   54   61 1   
    62   62   63 1   
    63   62   66 1   
    64   63   64 1   
    65   63   67 1   
    66   63   68 1   
    67   64   65 2   
    68   64   69 1   
    69   69   70 1   
    70   69   76 1   
    71   70   71 1   
    72   70   73 1   
    73   70   77 1   
    74   71   72 2   
    75   71   83 1   
    76   73   74 1   
    77   73   75 1   
    78   73   78 1   
    79   74   80 1   
    80   74   81 1   
    81   74   82 1   
    82   75   79 1   
    83   83   84 1   
    84   83   91 1   
    85   84   85 1   
    86   84   87 1   
    87   84   92 1   
    88   85   86 2   
    89   85  102 1   
    90   87   88 1   
    91   87   89 1   
    92   87   93 1   
    93   88   90 1   
    94   88   94 1   
    95   88   95 1   
    96   89   96 1   
    97   89   97 1   
    98   89   98 1   
    99   90   99 1   
   100   90  100 1   
   101   90  101 1   
   102  102  103 1   
   103  102  110 1   
   104  103  104 1   
   105  103  106 1   
   106  103  111 1   
   107  104  105 2   
   108  104  114 1   
   109  106  107 1   
   110  106  112 1   
   111  106  113 1   
   112  107  108 1   
   113  107  109 1   
   114  114  115 1   
   115  114  125 1   
   116  115  116 1   
   117  115  118 1   
   118  115  126 1   
   119  116  117 2   
   120  116  134 1   
   121  118  119 1   
   122  118  127 1   
   123  118  128 1   
   124  119  120 ar  
   125  119  121 ar  
   126  120  122 ar  
   127  120  129 1   
   128  121  123 ar  
   129  121  130 1   
   130  122  124 ar  
   131  122  131 1   
   132  123  124 ar  
   133  123  132 1   
   134  124  133 1   
   135  134  135 1   
   136  134  140 1   
   137  135  136 1   
   138  135  138 1   
   139  135  141 1   
   140  136  137 2   
   141  136  148 1   
   142  138  139 1   
   143  138  142 1   
   144  138  143 1   
   145  139  140 1   
   146  139  144 1   
   147  139  145 1   
   148  140  146 1   
   149  140  147 1   
   150  148  149 1   
   151  148  157 1   
   152  149  150 1   
   153  149  152 1   
   154  149  158 1   
   155  150  151 2   
   156  150  163 1   
   157  152  153 1   
   158  152  159 1   
   159  152  160 1   
   160  153  154 1   
   161  153  161 1   
   162  153  162 1   
   163  154  155 1   
   164  154  156 1   
   165  163  164 1   
   166  163  168 1   
   167  164  165 1   
   168  164  166 1   
   169  164  167 1   
   170  170  171 1   
   171  170  172 1   
   172  173  174 1   
   173  173  175 1   
   174  176  177 1   
   175  176  178 1   
   176  179  180 1   
   177  179  181 1   
@<TRIPOS>SUBSTRUCTURE
     1 MOL         1 TEMP              0 ****  ****    0 ROOT
