@<TRIPOS>MOLECULE
MOL
  182   178     1     0     0
SMALL
resp


@<TRIPOS>ATOM
      1 C1          1.0980   -4.1940    5.9630 c3        1 MOL     -0.442202
      2 C2          1.2470   -4.0400    4.4530 c         1 MOL      0.755846
      3 O1          0.2920   -4.3370    3.7030 o         1 MOL     -0.569884
      4 H1          0.1180   -4.6140    6.1900 hc        1 MOL      0.123191
      5 H2          1.8730   -4.8610    6.3380 hc        1 MOL      0.123191
      6 H3          1.1950   -3.2180    6.4400 hc        1 MOL      0.123191
      7 N1          2.4240   -3.5560    4.0140 n         1 MOL     -0.594510
      8 C3          2.7030   -3.2610    2.6070 c3        1 MOL      0.030264
      9 C4          2.9000   -4.5460    1.7180 c         1 MOL      0.483967
     10 O2          3.4930   -5.5550    2.1200 o         1 MOL     -0.516233
     11 C5          3.8060   -2.1610    2.4690 c3        1 MOL      0.192800
     12 C6          3.6010   -1.2350    1.2240 c         1 MOL      0.613733
     13 O3          4.1020   -0.0820    1.2050 o         1 MOL     -0.665354
     14 O4          3.1410   -1.6910    0.1350 o         1 MOL     -0.665354
     15 H4          2.9990   -3.0390    4.6610 hn        1 MOL      0.310210
     16 H5          1.8030   -2.8090    2.1890 h1        1 MOL     -0.045363
     17 H6          4.7930   -2.6180    2.5650 hc        1 MOL     -0.013735
     18 H7          3.7930   -1.4220    3.2780 hc        1 MOL     -0.013735
     19 N2          2.4820   -4.4450    0.4570 n         1 MOL     -0.243345
     20 C7          2.6970   -5.4530   -0.6050 c3        1 MOL     -0.192421
     21 C8          4.0610   -5.2520   -1.3090 c         1 MOL      0.610748
     22 O5          4.6030   -6.2310   -1.7360 o         1 MOL     -0.566173
     23 C9          1.5660   -5.3070   -1.7080 c3        1 MOL      0.017370
     24 C10         0.2120   -5.8040   -1.3210 c3        1 MOL      0.018483
     25 C11        -0.7490   -5.8230   -2.4890 c3        1 MOL      0.001567
     26 C12        -2.1670   -6.2610   -2.0660 c3        1 MOL     -0.055717
     27 N3         -3.1190   -5.9450   -3.1320 n4        1 MOL     -0.186538
     28 H8          2.1990   -3.5150    0.1770 hn        1 MOL      0.233070
     29 H9          2.6000   -6.4390   -0.1400 h1        1 MOL      0.142411
     30 H10         1.8850   -5.8370   -2.5990 hc        1 MOL      0.015927
     31 H11         1.4470   -4.2770   -2.0190 hc        1 MOL      0.015927
     32 H12        -0.1790   -5.1560   -0.5440 hc        1 MOL      0.018175
     33 H13         0.3100   -6.8040   -0.9180 hc        1 MOL      0.018175
     34 H14        -0.4020   -6.5620   -3.2120 hc        1 MOL      0.018719
     35 H15        -0.6330   -4.8670   -2.9910 hc        1 MOL      0.018719
     36 H16        -2.3650   -5.6550   -1.1770 hx        1 MOL      0.108047
     37 H17        -2.0410   -7.2980   -1.7660 hx        1 MOL      0.108047
     38 H18        -2.8120   -6.3630   -3.9970 hn        1 MOL      0.248191
     39 H19        -3.9810   -6.3890   -2.8670 hn        1 MOL      0.248191
     40 H20        -3.3620   -4.9800   -3.3360 hn        1 MOL      0.248191
     41 N4          4.5900   -4.0630   -1.3370 n         1 MOL     -0.322065
     42 C13         5.8380   -3.6460   -2.0410 c3        1 MOL      0.066378
     43 C14         6.7750   -2.8960   -1.0510 c         1 MOL      0.400070
     44 O6          7.9970   -2.9490   -1.2580 o         1 MOL     -0.501073
     45 C15         5.4930   -2.7280   -3.2290 c3        1 MOL     -0.150637
     46 C16         4.4080   -1.7120   -2.9640 c         1 MOL      0.690969
     47 O7          4.6260   -0.7010   -2.2760 o         1 MOL     -0.734711
     48 O8          3.2150   -2.1240   -3.1040 o         1 MOL     -0.734711
     49 H21         3.9620   -3.2820   -1.1880 hn        1 MOL      0.242834
     50 H22         6.3560   -4.4880   -2.4920 h1        1 MOL      0.107298
     51 H23         5.2850   -3.2860   -4.1420 hc        1 MOL      0.057952
     52 H24         6.3290   -2.1180   -3.5820 hc        1 MOL      0.057952
     53 N5          6.2160   -2.1850   -0.0290 n         1 MOL     -0.014021
     54 C17         7.0820   -1.4520    0.9180 c3        1 MOL     -0.271409
     55 C18         7.2180    0.0420    0.5620 c         1 MOL      0.610217
     56 O9          7.9400    0.7550    1.2670 o         1 MOL     -0.582546
     57 H25         5.2310   -1.9810   -0.0750 hn        1 MOL     -0.248179
     58 H26         8.0280   -1.9780    0.7760 h1        1 MOL      0.138562
     59 H27         6.6670   -1.5400    1.9190 h1        1 MOL      0.138562
     60 N6          6.5510    0.5100   -0.4950 n         1 MOL     -0.112683
     61 C19         6.8090    1.8260   -1.0200 c3        1 MOL     -0.059049
     62 C20         5.5650    2.6700   -1.0030 c         1 MOL      0.717259
     63 O10         4.4460    2.1830   -0.9470 o         1 MOL     -0.604316
     64 C21         7.5700    1.7510   -2.3020 c3        1 MOL     -0.378997
     65 C22         8.9820    1.3260   -2.1090 c         1 MOL      0.614684
     66 N7          9.6850    2.0730   -1.3040 n         1 MOL     -0.658447
     67 O11         9.5020    0.3230   -2.5770 o         1 MOL     -0.513638
     68 H28         5.9400   -0.1510   -0.9490 hn        1 MOL      0.240885
     69 H29         7.3880    2.4120   -0.3120 h1        1 MOL      0.000581
     70 H30         7.6510    2.7390   -2.7410 hc        1 MOL      0.095436
     71 H31         7.1710    1.1010   -3.0930 hc        1 MOL      0.095436
     72 H32         9.2250    2.8710   -0.8830 hn        1 MOL      0.330404
     73 H33        10.6870    2.0050   -1.2910 hn        1 MOL      0.330404
     74 N8          5.7940    3.9700   -0.9920 n         1 MOL     -0.398649
     75 C23         4.7920    4.9630   -1.0420 c3        1 MOL     -0.176594
     76 C24         3.8790    4.8580    0.1890 c         1 MOL      0.567175
     77 O12         4.2070    4.8050    1.3980 o         1 MOL     -0.495607
     78 H34         6.7390    4.2880   -0.8360 hn        1 MOL      0.306029
     79 H35         4.2810    4.7240   -1.9710 h1        1 MOL      0.103835
     80 H36         5.1500    5.9870   -1.1990 h1        1 MOL      0.103835
     81 N9          2.5880    4.7500   -0.1840 n         1 MOL     -0.549581
     82 C25         1.4520    4.6500    0.7260 c3        1 MOL      0.071178
     83 C26         1.2510    3.1650    1.0500 c         1 MOL      0.774531
     84 O13         1.8790    2.2810    0.4910 o         1 MOL     -0.564800
     85 C27         0.1460    5.1960   -0.0060 c3        1 MOL     -0.421167
     86 C28         0.2160    6.7030   -0.1980 ca        1 MOL      0.300326
     87 C29         0.0800    7.5050    0.9540 ca        1 MOL     -0.266838
     88 C30         0.2790    7.2850   -1.4760 ca        1 MOL     -0.266838
     89 C31         0.1690    8.8840    0.8040 ca        1 MOL     -0.209315
     90 C32         0.2950    8.7030   -1.6130 ca        1 MOL     -0.209315
     91 C33         0.3690    9.5200   -0.4700 ca        1 MOL      0.278853
     92 O14         0.4170   10.8460   -0.5260 oh        1 MOL     -0.432254
     93 H37         2.4130    4.6150   -1.1740 hn        1 MOL      0.291084
     94 H38         1.7630    5.1500    1.6470 h1        1 MOL      0.116703
     95 H39        -0.7460    5.0380    0.5970 hc        1 MOL      0.115759
     96 H40         0.0210    4.7150   -0.9660 hc        1 MOL      0.115759
     97 H41        -0.1540    7.0590    1.9040 ha        1 MOL      0.154936
     98 H42         0.3750    6.6840   -2.3660 ha        1 MOL      0.154936
     99 H43        -0.0090    9.5010    1.6750 ha        1 MOL      0.149946
    100 H44         0.4750    9.1490   -2.5830 ha        1 MOL      0.149946
    101 H45         0.3870   11.1280    0.3910 ho        1 MOL      0.353943
    102 N10         0.4810    2.8710    2.0670 n         1 MOL     -0.766873
    103 C34         0.2510    1.4820    2.6130 c3        1 MOL      0.272729
    104 C35        -0.1600    0.4630    1.6120 c         1 MOL      0.425664
    105 O15         0.6220    0.0830    0.7440 o         1 MOL     -0.491928
    106 C36         1.2960    1.0940    3.6510 c3        1 MOL      0.130430
    107 C37         0.7860   -0.1050    4.4640 c3        1 MOL     -0.114784
    108 C38         1.7330    2.2420    4.6310 c3        1 MOL     -0.218355
    109 C39        -0.5000    0.1880    5.2840 c3        1 MOL     -0.313740
    110 H46         0.0300    3.6400    2.5290 hn        1 MOL      0.343256
    111 H47        -0.6490    1.7300    3.1640 h1        1 MOL      0.003223
    112 H48         2.1550    0.7900    3.0530 hc        1 MOL     -0.001639
    113 H49         1.5330   -0.4550    5.1750 hc        1 MOL      0.074733
    114 H50         0.5950   -0.8430    3.6790 hc        1 MOL      0.074733
    115 H51         0.9790    2.5670    5.3490 hc        1 MOL      0.066254
    116 H52         2.5550    1.9020    5.2660 hc        1 MOL      0.066254
    117 H53         2.0510    3.1620    4.1510 hc        1 MOL      0.066254
    118 H54        -1.3670   -0.0450    4.6750 hc        1 MOL      0.081116
    119 H55        -0.4700   -0.3010    6.2660 hc        1 MOL      0.081116
    120 H56        -0.5590    1.2360    5.5740 hc        1 MOL      0.081116
    121 N11        -1.3600   -0.1260    1.7030 n         1 MOL     -0.470943
    122 C40        -1.7730   -1.2690    0.8800 c3        1 MOL     -0.005574
    123 C41        -3.3080   -1.4500    0.7330 c         1 MOL      0.533833
    124 O16        -3.7190   -2.4590    0.2090 o         1 MOL     -0.555646
    125 C42        -1.2450   -2.5820    1.6060 c3        1 MOL      0.260293
    126 O17        -1.9750   -2.6790    2.8020 oh        1 MOL     -0.536800
    127 H57        -2.0440    0.2900    2.3280 hn        1 MOL      0.337971
    128 H58        -1.4140   -1.2260   -0.1460 h1        1 MOL      0.050453
    129 H59        -0.1530   -2.6220    1.6960 h1        1 MOL     -0.035843
    130 H60        -1.4700   -3.4030    0.9250 h1        1 MOL     -0.035843
    131 H61        -1.6420   -3.4740    3.2160 ho        1 MOL      0.369850
    132 N12        -4.1590   -0.5110    1.0930 n         1 MOL     -0.434251
    133 C43        -5.6210   -0.4420    0.7600 c3        1 MOL      0.072324
    134 C44        -5.8840    0.1800   -0.6860 c         1 MOL      0.704968
    135 O18        -5.0770    0.9830   -1.1150 o         1 MOL     -0.594870
    136 C45        -6.3840    0.3420    1.9000 c3        1 MOL     -0.243047
    137 H62        -3.7520    0.2290    1.6530 hn        1 MOL      0.232148
    138 H63        -5.9750   -1.4660    0.7300 h1        1 MOL      0.089014
    139 H64        -7.3770    0.5560    1.5030 hc        1 MOL      0.088905
    140 H65        -6.3740   -0.2350    2.8210 hc        1 MOL      0.088905
    141 H66        -5.7900    1.2410    2.0730 hc        1 MOL      0.088905
    142 N13        -6.9520   -0.0920   -1.4750 n         1 MOL     -0.787834
    143 C46        -8.1780   -0.8130   -1.2090 c3        1 MOL      0.489754
    144 C47        -9.2400    0.0860   -1.8870 c         1 MOL      0.311328
    145 O19        -8.9940    0.7250   -2.9220 o         1 MOL     -0.507853
    146 C48        -8.2390   -2.2170   -1.8310 c3        1 MOL     -0.376234
    147 H67        -6.8730    0.2620   -2.4200 hn        1 MOL      0.369713
    148 H68        -8.2810   -0.9080   -0.1240 h1        1 MOL     -0.017951
    149 H69        -7.9310   -2.0730   -2.8710 hc        1 MOL      0.098214
    150 H70        -7.5400   -2.8260   -1.2640 hc        1 MOL      0.098214
    151 H71        -9.1840   -2.7490   -1.7870 hc        1 MOL      0.098214
    152 N14       -10.4340    0.2400   -1.2880 n         1 MOL     -0.117771
    153 C49       -10.8550   -0.2990    0.0240 c3        1 MOL     -0.374983
    154 C50       -10.2690    0.5220    1.1230 c         1 MOL      0.468035
    155 O20        -9.9590   -0.0030    2.2390 o         1 MOL     -0.538221
    156 C51       -12.3790   -0.3450    0.2390 c3        1 MOL      0.331675
    157 C52       -13.0980   -1.1010   -0.8100 c3        1 MOL     -0.354669
    158 C53       -13.2020   -0.3710   -2.1150 c         1 MOL      0.684725
    159 O21       -13.7360    0.7920   -2.0640 o         1 MOL     -0.669280
    160 O22       -12.5350   -0.6970   -3.1410 o         1 MOL     -0.669280
    161 H72       -10.9700    1.0000   -1.6860 hn        1 MOL      0.263057
    162 H73       -10.3960   -1.2840    0.1090 h1        1 MOL      0.135190
    163 H74       -12.7590    0.6690    0.3650 hc        1 MOL     -0.023819
    164 H75       -12.6270   -0.7390    1.2280 hc        1 MOL     -0.023819
    165 H76       -14.1390   -1.0900   -0.4980 hc        1 MOL      0.061347
    166 H77       -12.7450   -2.1250   -0.8940 hc        1 MOL      0.061347
    167 N15       -10.0370    1.7890    0.7860 n         1 MOL     -0.225694
    168 C54        -9.3790    2.7270    1.6940 c3        1 MOL     -0.185508
    169 H78        -8.4430    3.0650    1.2490 h1        1 MOL      0.087862
    170 H79       -10.0300    3.5840    1.8660 h1        1 MOL      0.087862
    171 H80        -9.1710    2.2310    2.6420 h1        1 MOL      0.087862
    172 H81       -10.4350    2.1670   -0.0590 hn        1 MOL      0.246956
    173 Ca1         2.4980    0.4590   -1.2130 Ca        1 MOL      1.854860
    174 O23         3.1310    1.9370   -3.2700 oh        1 MOL     -0.889596
    175 H82         3.8660    2.5330   -3.4310 ho        1 MOL      0.433029
    176 H83         2.6820    1.8660   -4.1110 ho        1 MOL      0.433029
    177 O24         0.6720   -1.1520   -2.2460 oh        1 MOL     -0.889596
    178 H84        -0.2800   -1.2220   -2.1210 ho        1 MOL      0.433029
    179 H85         0.9080   -1.9110   -2.7720 ho        1 MOL      0.433029
    180 O25         0.1180    1.6040   -1.7880 oh        1 MOL     -0.889596
    181 H86        -0.7270    1.1500   -1.7520 ho        1 MOL      0.433029
    182 H87        -0.0910    2.4780   -2.1180 ho        1 MOL      0.433029
@<TRIPOS>BOND
     1    1    2 1   
     2    1    4 1   
     3    1    5 1   
     4    1    6 1   
     5    2    3 2   
     6    2    7 1   
     7    7    8 1   
     8    7   15 1   
     9    8    9 1   
    10    8   11 1   
    11    8   16 1   
    12    9   10 2   
    13    9   19 1   
    14   11   12 1   
    15   11   17 1   
    16   11   18 1   
    17   12   13 1   
    18   12   14 1   
    19   19   20 1   
    20   19   28 1   
    21   20   21 1   
    22   20   23 1   
    23   20   29 1   
    24   21   22 2   
    25   21   41 1   
    26   23   24 1   
    27   23   30 1   
    28   23   31 1   
    29   24   25 1   
    30   24   32 1   
    31   24   33 1   
    32   25   26 1   
    33   25   34 1   
    34   25   35 1   
    35   26   27 1   
    36   26   36 1   
    37   26   37 1   
    38   27   38 1   
    39   27   39 1   
    40   27   40 1   
    41   41   42 1   
    42   41   49 1   
    43   42   43 1   
    44   42   45 1   
    45   42   50 1   
    46   43   44 2   
    47   43   53 1   
    48   45   46 1   
    49   45   51 1   
    50   45   52 1   
    51   46   47 1   
    52   46   48 1   
    53   53   54 1   
    54   53   57 1   
    55   54   55 1   
    56   54   58 1   
    57   54   59 1   
    58   55   56 2   
    59   55   60 1   
    60   60   61 1   
    61   60   68 1   
    62   61   62 1   
    63   61   64 1   
    64   61   69 1   
    65   62   63 2   
    66   62   74 1   
    67   64   65 1   
    68   64   70 1   
    69   64   71 1   
    70   65   66 1   
    71   65   67 2   
    72   66   72 1   
    73   66   73 1   
    74   74   75 1   
    75   74   78 1   
    76   75   76 1   
    77   75   79 1   
    78   75   80 1   
    79   76   77 2   
    80   76   81 1   
    81   81   82 1   
    82   81   93 1   
    83   82   83 1   
    84   82   85 1   
    85   82   94 1   
    86   83   84 2   
    87   83  102 1   
    88   85   86 1   
    89   85   95 1   
    90   85   96 1   
    91   86   87 ar  
    92   86   88 ar  
    93   87   89 ar  
    94   87   97 1   
    95   88   90 ar  
    96   88   98 1   
    97   89   91 ar  
    98   89   99 1   
    99   90   91 ar  
   100   90  100 1   
   101   91   92 1   
   102   92  101 1   
   103  102  103 1   
   104  102  110 1   
   105  103  104 1   
   106  103  106 1   
   107  103  111 1   
   108  104  105 2   
   109  104  121 1   
   110  106  107 1   
   111  106  108 1   
   112  106  112 1   
   113  107  109 1   
   114  107  113 1   
   115  107  114 1   
   116  108  115 1   
   117  108  116 1   
   118  108  117 1   
   119  109  118 1   
   120  109  119 1   
   121  109  120 1   
   122  121  122 1   
   123  121  127 1   
   124  122  123 1   
   125  122  125 1   
   126  122  128 1   
   127  123  124 2   
   128  123  132 1   
   129  125  126 1   
   130  125  129 1   
   131  125  130 1   
   132  126  131 1   
   133  132  133 1   
   134  132  137 1   
   135  133  134 1   
   136  133  136 1   
   137  133  138 1   
   138  134  135 2   
   139  134  142 1   
   140  136  139 1   
   141  136  140 1   
   142  136  141 1   
   143  142  143 1   
   144  142  147 1   
   145  143  144 1   
   146  143  146 1   
   147  143  148 1   
   148  144  145 2   
   149  144  152 1   
   150  146  149 1   
   151  146  150 1   
   152  146  151 1   
   153  152  153 1   
   154  152  161 1   
   155  153  154 1   
   156  153  156 1   
   157  153  162 1   
   158  154  155 2   
   159  154  167 1   
   160  156  157 1   
   161  156  163 1   
   162  156  164 1   
   163  157  158 1   
   164  157  165 1   
   165  157  166 1   
   166  158  159 1   
   167  158  160 1   
   168  167  168 1   
   169  167  172 1   
   170  168  169 1   
   171  168  170 1   
   172  168  171 1   
   173  174  175 1   
   174  174  176 1   
   175  177  178 1   
   176  177  179 1   
   177  180  181 1   
   178  180  182 1   
@<TRIPOS>SUBSTRUCTURE
     1 MOL         1 TEMP              0 ****  ****    0 ROOT
