@<TRIPOS>MOLECULE
MOL
  195   189     1     0     0
SMALL
resp


@<TRIPOS>ATOM
      1 C1          0.8450    3.1810    3.1220 c3        1 MOL     -0.154707
      2 C2         -0.0010    3.4750    1.8350 c         1 MOL      0.453395
      3 O1         -0.6340    2.6110    1.2490 o         1 MOL     -0.456021
      4 H1          0.2000    3.2320    3.9990 hc        1 MOL      0.035088
      5 H2          1.2830    2.1850    3.0500 hc        1 MOL      0.035088
      6 H3          1.6400    3.9220    3.2120 hc        1 MOL      0.035088
      7 N1         -0.0380    4.7430    1.3690 n         1 MOL     -0.319188
      8 C3         -0.5330    5.1970    0.1030 c3        1 MOL      0.208439
      9 C4         -2.1010    4.9990   -0.0710 c         1 MOL      0.590087
     10 O2         -2.6120    4.5380   -1.0800 o         1 MOL     -0.481843
     11 C5          0.3430    4.7610   -1.0310 c3        1 MOL     -0.875059
     12 C6          1.8260    5.1140   -0.8390 c         1 MOL      1.285875
     13 O3          2.1750    5.9600    0.0030 o         1 MOL     -0.901070
     14 O4          2.7350    4.6240   -1.5150 o         1 MOL     -0.901070
     15 H4          0.5300    5.3890    1.8980 hn        1 MOL      0.212265
     16 H5         -0.3480    6.2580    0.1960 h1        1 MOL      0.037329
     17 H6          0.0630    5.3430   -1.9080 hc        1 MOL      0.211731
     18 H7          0.2720    3.7100   -1.2690 hc        1 MOL      0.211731
     19 N2         -2.8070    5.1940    1.0200 n         1 MOL     -0.499241
     20 C7         -4.2390    4.9690    1.1500 c3        1 MOL     -0.019415
     21 C8         -5.0100    5.8780    0.1580 c         1 MOL      0.286236
     22 O5         -4.5720    6.9750   -0.2810 o         1 MOL     -0.531383
     23 C9         -4.6670    5.0170    2.6560 c3        1 MOL      0.078496
     24 C10        -4.4910    6.4790    3.1790 c3        1 MOL      0.227182
     25 C11        -4.0350    3.9530    3.5600 c3        1 MOL     -0.330033
     26 C12        -5.3540    6.8320    4.4370 c3        1 MOL     -0.346158
     27 H8         -2.2430    5.4110    1.8320 hn        1 MOL      0.201733
     28 H9         -4.3910    3.9710    0.7410 h1        1 MOL      0.164778
     29 H10        -5.7090    4.7190    2.7110 hc        1 MOL      0.095155
     30 H11        -4.7240    7.2190    2.4130 hc        1 MOL     -0.022397
     31 H12        -3.4470    6.6440    3.4420 hc        1 MOL     -0.022397
     32 H13        -4.1550    4.1500    4.6320 hc        1 MOL      0.084610
     33 H14        -4.3540    2.9790    3.2060 hc        1 MOL      0.084610
     34 H15        -2.9640    3.8800    3.4090 hc        1 MOL      0.084610
     35 H16        -5.5160    5.9660    5.0720 hc        1 MOL      0.069468
     36 H17        -4.9610    7.6470    5.0480 hc        1 MOL      0.069468
     37 H18        -6.3380    7.0900    4.0370 hc        1 MOL      0.069468
     38 N3         -6.2990    5.7000   -0.1410 n         1 MOL     -0.251278
     39 C13        -7.0200    4.4530    0.0690 c3        1 MOL     -0.025530
     40 C14        -6.4190    3.2380   -0.5990 c         1 MOL      0.603687
     41 O6         -6.3610    2.1820   -0.0610 o         1 MOL     -0.471889
     42 C15        -8.4660    4.6630   -0.4640 c3        1 MOL     -0.156074
     43 C16        -9.3220    3.4690   -0.2390 c         1 MOL      0.684747
     44 O7         -9.5820    3.1070    0.9080 o         1 MOL     -0.681048
     45 O8         -9.7660    2.8480   -1.2350 o         1 MOL     -0.681048
     46 H19        -6.7030    6.3780   -0.7750 hn        1 MOL      0.256281
     47 H20        -7.0800    4.2210    1.1280 h1        1 MOL     -0.000967
     48 H21        -8.4340    4.7990   -1.5460 hc        1 MOL      0.008392
     49 H22        -8.8210    5.5890   -0.0230 hc        1 MOL      0.008392
     50 N4         -5.8550    3.4700   -1.8270 n         1 MOL     -0.448589
     51 C17        -4.9540    2.5130   -2.5470 c3        1 MOL     -0.158177
     52 C18        -5.4970    1.1540   -2.8700 c         1 MOL      0.501330
     53 O9         -6.7300    0.9300   -2.9850 o         1 MOL     -0.496191
     54 H23        -5.9560    4.3510   -2.3040 hn        1 MOL      0.301570
     55 H24        -4.0780    2.5220   -1.9040 h1        1 MOL      0.107085
     56 H25        -4.6380    2.9950   -3.4770 h1        1 MOL      0.107085
     57 N5         -4.6190    0.1420   -2.9460 n         1 MOL     -0.479919
     58 C19        -5.0340   -1.2130   -3.4530 c3        1 MOL      0.119409
     59 C20        -5.8610   -1.9240   -2.3610 c         1 MOL      0.494902
     60 O10        -6.3880   -2.9030   -2.7690 o         1 MOL     -0.554451
     61 C21        -3.8890   -2.0300   -4.0680 c3        1 MOL     -0.231660
     62 C22        -2.8290   -2.5230   -3.1060 c         1 MOL      0.873093
     63 O11        -1.7920   -3.0590   -3.5170 o         1 MOL     -0.748382
     64 O12        -2.9830   -2.5420   -1.8780 o         1 MOL     -0.748382
     65 H26        -3.6430    0.3400   -2.7650 hn        1 MOL      0.273065
     66 H27        -5.8280   -1.0960   -4.1950 h1        1 MOL      0.054689
     67 H28        -3.2810   -1.4790   -4.7780 hc        1 MOL      0.028369
     68 H29        -4.2610   -2.9330   -4.5500 hc        1 MOL      0.028369
     69 N6         -5.8600   -1.5260   -1.0710 n         1 MOL     -0.192791
     70 C23        -6.6020   -2.2750   -0.0570 c3        1 MOL     -0.219045
     71 C24        -5.9950   -3.5970    0.4190 c         1 MOL      0.541019
     72 O13        -6.5690   -4.1390    1.3750 o         1 MOL     -0.608742
     73 H30        -5.3690   -0.6640   -0.8660 hn        1 MOL      0.209230
     74 H31        -7.5920   -2.5710   -0.4100 h1        1 MOL      0.127900
     75 H32        -6.7380   -1.6270    0.8070 h1        1 MOL      0.127900
     76 N7         -4.9420   -4.0600   -0.2260 n         1 MOL     -0.187504
     77 C25        -4.4550   -5.4630   -0.1940 c3        1 MOL      0.150999
     78 C26        -3.8890   -5.8690    1.1890 c         1 MOL      0.353555
     79 O14        -3.9660   -7.1000    1.5720 o         1 MOL     -0.514185
     80 C27        -5.3430   -6.5270   -0.9070 c3        1 MOL     -0.045827
     81 C28        -5.9490   -6.1410   -2.2790 c3        1 MOL      0.006417
     82 C29        -6.4710   -7.3480   -3.0660 c         1 MOL      0.579035
     83 N8         -7.1850   -7.0600   -4.1580 n         1 MOL     -0.763187
     84 O15        -6.2950   -8.4580   -2.6790 o         1 MOL     -0.530419
     85 H33        -4.5980   -3.5000   -0.9850 hn        1 MOL      0.103389
     86 H34        -3.5390   -5.4010   -0.7840 h1        1 MOL      0.091427
     87 H35        -6.2440   -6.8320   -0.3690 hc        1 MOL      0.016521
     88 H36        -4.7480   -7.4170   -1.1030 hc        1 MOL      0.016521
     89 H37        -5.0980   -5.7370   -2.8350 hc        1 MOL      0.025006
     90 H38        -6.6480   -5.3090   -2.2240 hc        1 MOL      0.025006
     91 H39        -7.0740   -6.1470   -4.5580 hn        1 MOL      0.330186
     92 H40        -7.3820   -7.7960   -4.8250 hn        1 MOL      0.330186
     93 N9         -3.4390   -4.8660    1.9550 n         1 MOL     -0.417551
     94 C30        -2.9250   -5.0190    3.3460 c3        1 MOL      0.301414
     95 C31        -1.5520   -4.4510    3.4930 c         1 MOL      0.332450
     96 O16        -0.7690   -4.7490    4.4390 o         1 MOL     -0.580165
     97 C32        -3.7610   -4.2510    4.3650 c3        1 MOL      0.218618
     98 C33        -4.0340   -2.7700    4.0920 c3        1 MOL     -0.443704
     99 C34        -5.1750   -4.7600    4.7010 c3        1 MOL     -0.443704
    100 H41        -3.6580   -3.9330    1.6200 hn        1 MOL      0.228890
    101 H42        -2.9730   -6.0410    3.7160 h1        1 MOL      0.029098
    102 H43        -3.2110   -4.2330    5.3090 hc        1 MOL     -0.019336
    103 H44        -4.2530   -2.2050    4.9940 hc        1 MOL      0.112670
    104 H45        -3.1840   -2.2680    3.6290 hc        1 MOL      0.112670
    105 H46        -4.7130   -2.7050    3.2420 hc        1 MOL      0.112670
    106 H47        -5.8420   -4.8390    3.8450 hc        1 MOL      0.112670
    107 H48        -5.0860   -5.8110    4.9690 hc        1 MOL      0.112670
    108 H49        -5.5790   -4.2330    5.5680 hc        1 MOL      0.112670
    109 N10        -1.1540   -3.6970    2.5030 n         1 MOL     -0.388230
    110 C35         0.1240   -3.0650    2.4400 c3        1 MOL      0.398781
    111 C36         0.7590   -3.5170    1.0860 c         1 MOL      0.368419
    112 O17         0.2750   -4.2760    0.2470 o         1 MOL     -0.484124
    113 C37         0.0260   -1.5630    2.6910 c3        1 MOL     -0.030111
    114 C38         1.3190   -1.0350    3.2670 c         1 MOL      0.457819
    115 N11         1.2480   -0.6730    4.5680 n         1 MOL     -0.719659
    116 O18         2.3840   -0.9690    2.6740 o         1 MOL     -0.433088
    117 H50        -1.7750   -3.5020    1.7320 hn        1 MOL      0.232168
    118 H51         0.7820   -3.4210    3.2390 h1        1 MOL      0.017205
    119 H52        -0.7920   -1.3030    3.3590 hc        1 MOL      0.018337
    120 H53        -0.2590   -0.9900    1.8170 hc        1 MOL      0.018337
    121 H54         0.3970   -0.8150    5.1050 hn        1 MOL      0.343379
    122 H55         2.0940   -0.3060    4.9820 hn        1 MOL      0.343379
    123 N12         1.9310   -2.9270    0.7980 n         1 MOL     -0.306020
    124 C39         2.8200   -3.3780   -0.2720 c3        1 MOL     -0.008346
    125 C40         4.3050   -3.1060    0.0740 c         1 MOL      0.612563
    126 O19         4.6540   -2.2170    0.8540 o         1 MOL     -0.583234
    127 C41         2.5580   -2.7000   -1.6460 c3        1 MOL     -0.273357
    128 C42         3.0760   -1.2780   -1.8150 ca        1 MOL      0.106346
    129 C43         2.3650   -0.2700   -1.1410 ca        1 MOL     -0.202554
    130 C44         4.1870   -0.9790   -2.6900 ca        1 MOL     -0.202554
    131 C45         2.7740    1.0510   -1.4030 ca        1 MOL     -0.103777
    132 C46         4.4910    0.3660   -2.9290 ca        1 MOL     -0.103777
    133 C47         3.7430    1.3550   -2.2770 ca        1 MOL      0.024733
    134 O20         4.0560    2.6620   -2.5860 oh        1 MOL     -0.381257
    135 H56         2.2800   -2.2620    1.4710 hn        1 MOL      0.147756
    136 H57         2.7700   -4.4630   -0.3160 h1        1 MOL      0.087728
    137 H58         1.4700   -2.6740   -1.7980 hc        1 MOL      0.132293
    138 H59         2.9710   -3.2070   -2.5080 hc        1 MOL      0.132293
    139 H60         1.5150   -0.4050   -0.4860 ha        1 MOL      0.129157
    140 H61         4.7670   -1.7450   -3.1820 ha        1 MOL      0.129157
    141 H62         2.2710    1.7610   -0.7630 ha        1 MOL      0.131672
    142 H63         5.2620    0.6350   -3.6330 ha        1 MOL      0.131672
    143 H64         3.4610    3.1940   -2.0590 ho        1 MOL      0.416477
    144 N13         5.2480   -3.8840   -0.4670 n         1 MOL     -0.592634
    145 C48         6.6830   -3.8500   -0.2660 c3        1 MOL      0.261967
    146 C49         7.3410   -3.2840   -1.4780 c         1 MOL      0.589263
    147 O21         7.3880   -4.0630   -2.4060 o         1 MOL     -0.558376
    148 C50         7.0840   -5.3210    0.0290 c3        1 MOL     -0.187336
    149 C51         8.5880   -5.3690    0.3100 c3        1 MOL     -0.137222
    150 C52         9.0980   -6.7140    0.6980 c         1 MOL      0.749811
    151 O22         8.9780   -7.1260    1.8510 o         1 MOL     -0.708565
    152 O23         9.7100   -7.3450   -0.1600 o         1 MOL     -0.708565
    153 H65         4.9700   -4.6000   -1.1160 hn        1 MOL      0.280797
    154 H66         6.8650   -3.2300    0.6090 h1        1 MOL      0.020285
    155 H67         6.8790   -5.9380   -0.8430 hc        1 MOL      0.071569
    156 H68         6.5210   -5.6240    0.9110 hc        1 MOL      0.071569
    157 H69         8.8300   -4.8160    1.2140 hc        1 MOL      0.025140
    158 H70         9.1020   -4.9320   -0.5490 hc        1 MOL      0.025140
    159 N14         7.9140   -2.0830   -1.5350 n         1 MOL     -0.695473
    160 C53         7.4750   -0.9850   -0.7420 c3        1 MOL      0.255939
    161 C54         8.0510   -1.0880    0.7080 c         1 MOL      0.489605
    162 O24         9.2240   -1.3610    0.8680 o         1 MOL     -0.532658
    163 C55         7.8110    0.3840   -1.4000 c3        1 MOL     -0.294992
    164 C56         7.1630    1.5590   -0.8140 c3        1 MOL     -0.200770
    165 C57         7.0990    2.8070   -1.7280 c         1 MOL      0.506996
    166 O25         6.3540    3.7510   -1.3660 o         1 MOL     -0.585232
    167 O26         7.7040    2.9310   -2.8160 o         1 MOL     -0.585232
    168 H71         8.4780   -1.8580   -2.3420 hn        1 MOL      0.349631
    169 H72         6.3930   -1.1150   -0.7850 h1        1 MOL      0.136199
    170 H73         7.4480    0.2040   -2.4150 hc        1 MOL      0.092848
    171 H74         8.8920    0.5030   -1.3960 hc        1 MOL      0.092848
    172 H75         7.7610    1.8410    0.0550 hc        1 MOL      0.052830
    173 H76         6.1820    1.2140   -0.4750 hc        1 MOL      0.052830
    174 N15         7.1840   -0.6620    1.6930 n         1 MOL     -0.240221
    175 C58         7.5970   -0.5450    3.0850 c3        1 MOL     -0.251366
    176 H77         6.7160   -0.4400    3.7170 h1        1 MOL      0.093400
    177 H78         8.1490   -1.4390    3.3770 h1        1 MOL      0.093400
    178 H79         8.2350    0.3300    3.2030 h1        1 MOL      0.093400
    179 H80         6.2030   -0.5320    1.5000 hn        1 MOL      0.251960
    180 Ca1         4.9530    5.5920   -0.2740 Ca        1 MOL      1.720990
    181 O27         6.7130    4.6990    1.6460 oh        1 MOL     -0.843656
    182 H81         7.5590    5.0230    1.9460 ho        1 MOL      0.381547
    183 H82         6.5550    3.9080    2.1630 ho        1 MOL      0.381547
    184 O28         4.4620    8.0600   -1.1560 oh        1 MOL     -0.843656
    185 H83         4.6090    8.5060   -1.9870 ho        1 MOL      0.381547
    186 H84         4.6040    8.7320   -0.4960 ho        1 MOL      0.381547
    187 O29         6.0060    6.2890   -2.7510 oh        1 MOL     -0.843656
    188 H85         6.0890    5.7140   -3.5130 ho        1 MOL      0.381547
    189 H86         6.5760    7.0380   -2.9560 ho        1 MOL      0.381547
    190 O30         3.9280    3.3980    0.8370 oh        1 MOL     -0.843656
    191 H87         3.4520    3.4490    1.6620 ho        1 MOL      0.381547
    192 H88         4.0190    2.4570    0.6650 ho        1 MOL      0.381547
    193 O31         7.0600    7.3400    0.2660 oh        1 MOL     -0.843656
    194 H89         7.3260    8.1130   -0.2430 ho        1 MOL      0.381547
    195 H90         7.0830    7.6330    1.1750 ho        1 MOL      0.381547
@<TRIPOS>BOND
     1    1    2 1   
     2    1    4 1   
     3    1    5 1   
     4    1    6 1   
     5    2    3 2   
     6    2    7 1   
     7    7    8 1   
     8    7   15 1   
     9    8    9 1   
    10    8   11 1   
    11    8   16 1   
    12    9   10 2   
    13    9   19 1   
    14   11   12 1   
    15   11   17 1   
    16   11   18 1   
    17   12   13 1   
    18   12   14 1   
    19   19   20 1   
    20   19   27 1   
    21   20   21 1   
    22   20   23 1   
    23   20   28 1   
    24   21   22 2   
    25   21   38 1   
    26   23   24 1   
    27   23   25 1   
    28   23   29 1   
    29   24   26 1   
    30   24   30 1   
    31   24   31 1   
    32   25   32 1   
    33   25   33 1   
    34   25   34 1   
    35   26   35 1   
    36   26   36 1   
    37   26   37 1   
    38   38   39 1   
    39   38   46 1   
    40   39   40 1   
    41   39   42 1   
    42   39   47 1   
    43   40   41 2   
    44   40   50 1   
    45   42   43 1   
    46   42   48 1   
    47   42   49 1   
    48   43   44 1   
    49   43   45 1   
    50   50   51 1   
    51   50   54 1   
    52   51   52 1   
    53   51   55 1   
    54   51   56 1   
    55   52   53 2   
    56   52   57 1   
    57   57   58 1   
    58   57   65 1   
    59   58   59 1   
    60   58   61 1   
    61   58   66 1   
    62   59   60 2   
    63   59   69 1   
    64   61   62 1   
    65   61   67 1   
    66   61   68 1   
    67   62   63 1   
    68   62   64 1   
    69   69   70 1   
    70   69   73 1   
    71   70   71 1   
    72   70   74 1   
    73   70   75 1   
    74   71   72 2   
    75   71   76 1   
    76   76   77 1   
    77   76   85 1   
    78   77   78 1   
    79   77   80 1   
    80   77   86 1   
    81   78   79 2   
    82   78   93 1   
    83   80   81 1   
    84   80   87 1   
    85   80   88 1   
    86   81   82 1   
    87   81   89 1   
    88   81   90 1   
    89   82   83 1   
    90   82   84 2   
    91   83   91 1   
    92   83   92 1   
    93   93   94 1   
    94   93  100 1   
    95   94   95 1   
    96   94   97 1   
    97   94  101 1   
    98   95   96 2   
    99   95  109 1   
   100   97   98 1   
   101   97   99 1   
   102   97  102 1   
   103   98  103 1   
   104   98  104 1   
   105   98  105 1   
   106   99  106 1   
   107   99  107 1   
   108   99  108 1   
   109  109  110 1   
   110  109  117 1   
   111  110  111 1   
   112  110  113 1   
   113  110  118 1   
   114  111  112 2   
   115  111  123 1   
   116  113  114 1   
   117  113  119 1   
   118  113  120 1   
   119  114  115 1   
   120  114  116 2   
   121  115  121 1   
   122  115  122 1   
   123  123  124 1   
   124  123  135 1   
   125  124  125 1   
   126  124  127 1   
   127  124  136 1   
   128  125  126 2   
   129  125  144 1   
   130  127  128 1   
   131  127  137 1   
   132  127  138 1   
   133  128  129 ar  
   134  128  130 ar  
   135  129  131 ar  
   136  129  139 1   
   137  130  132 ar  
   138  130  140 1   
   139  131  133 ar  
   140  131  141 1   
   141  132  133 ar  
   142  132  142 1   
   143  133  134 1   
   144  134  143 1   
   145  144  145 1   
   146  144  153 1   
   147  145  146 1   
   148  145  148 1   
   149  145  154 1   
   150  146  147 2   
   151  146  159 1   
   152  148  149 1   
   153  148  155 1   
   154  148  156 1   
   155  149  150 1   
   156  149  157 1   
   157  149  158 1   
   158  150  151 1   
   159  150  152 1   
   160  159  160 1   
   161  159  168 1   
   162  160  161 1   
   163  160  163 1   
   164  160  169 1   
   165  161  162 2   
   166  161  174 1   
   167  163  164 1   
   168  163  170 1   
   169  163  171 1   
   170  164  165 1   
   171  164  172 1   
   172  164  173 1   
   173  165  166 1   
   174  165  167 1   
   175  174  175 1   
   176  174  179 1   
   177  175  176 1   
   178  175  177 1   
   179  175  178 1   
   180  181  182 1   
   181  181  183 1   
   182  184  185 1   
   183  184  186 1   
   184  187  188 1   
   185  187  189 1   
   186  190  191 1   
   187  190  192 1   
   188  193  194 1   
   189  193  195 1   
@<TRIPOS>SUBSTRUCTURE
     1 MOL         1 TEMP              0 ****  ****    0 ROOT
