@<TRIPOS>MOLECULE
MOL
  192   187     1     0     0
SMALL
resp


@<TRIPOS>ATOM
      1 C1          9.3770    0.9760    2.0000 c3        1 MOL     -0.530719
      2 C2          8.3090    0.6010    0.9990 c         1 MOL      0.790537
      3 O1          7.1460    0.5560    1.3040 o         1 MOL     -0.670045
      4 H1         10.3120    0.4810    1.7360 hc        1 MOL      0.133274
      5 H2          9.5230    2.0560    1.9880 hc        1 MOL      0.133274
      6 H3          9.0680    0.6620    2.9970 hc        1 MOL      0.133274
      7 N1          8.7070    0.2090   -0.2340 n         1 MOL     -0.532867
      8 C3          7.8480    0.0160   -1.3800 c3        1 MOL     -0.030692
      9 C4          7.1630   -1.4130   -1.4220 c         1 MOL      0.286877
     10 O2          6.8940   -1.9040   -2.5510 o         1 MOL     -0.432456
     11 C5          8.5390    0.3640   -2.6390 c3        1 MOL     -0.216009
     12 C6          9.9290   -0.2650   -2.8150 c         1 MOL      0.790246
     13 O3         10.6660    0.4090   -3.5040 o         1 MOL     -0.683007
     14 O4         10.2770   -1.3540   -2.3250 o         1 MOL     -0.683007
     15 H4          9.7030    0.0460   -0.3250 hn        1 MOL      0.276393
     16 H5          7.0070    0.7000   -1.3280 h1        1 MOL      0.159842
     17 H6          8.7170    1.4390   -2.6900 hc        1 MOL      0.072849
     18 H7          7.9040    0.0490   -3.4710 hc        1 MOL      0.072849
     19 N2          6.8510   -1.9710   -0.2740 n         1 MOL     -0.011995
     20 C7          6.3350   -3.3120   -0.0100 c3        1 MOL     -0.012740
     21 C8          4.9200   -3.5120   -0.5750 c         1 MOL      0.414803
     22 O5          4.6710   -4.4710   -1.3050 o         1 MOL     -0.511195
     23 C9          6.6860   -3.6930    1.4220 c3        1 MOL     -0.026004
     24 C10         8.2050   -4.0490    1.6000 c3        1 MOL      0.079977
     25 C11         8.5000   -4.2180    3.1100 c3        1 MOL     -0.232319
     26 C12         9.8660   -3.5570    3.4640 c3        1 MOL      0.265913
     27 N3         10.5170   -4.0620    4.7110 n4        1 MOL     -0.378789
     28 H8          7.1770   -1.4360    0.5230 hn        1 MOL      0.090765
     29 H9          6.9290   -3.9480   -0.6660 h1        1 MOL      0.066508
     30 H10         6.0990   -4.5890    1.6270 hc        1 MOL      0.035264
     31 H11         6.2970   -2.9880    2.1570 hc        1 MOL      0.035264
     32 H12         8.8390   -3.3130    1.1190 hc        1 MOL      0.027772
     33 H13         8.3800   -4.9300    0.9960 hc        1 MOL      0.027772
     34 H14         8.7450   -5.2370    3.4350 hc        1 MOL      0.058768
     35 H15         7.6660   -3.8570    3.7180 hc        1 MOL      0.058768
     36 H16         9.7830   -2.4780    3.5990 hx        1 MOL      0.009959
     37 H17        10.5680   -3.7160    2.6430 hx        1 MOL      0.009959
     38 H18        11.4250   -3.6580    4.8950 hn        1 MOL      0.282724
     39 H19         9.8260   -3.8970    5.4260 hn        1 MOL      0.282724
     40 H20        10.6820   -5.0460    4.5970 hn        1 MOL      0.282724
     41 N4          3.9420   -2.6630   -0.2250 n         1 MOL     -0.260893
     42 C13         4.0030   -1.4650    0.7250 c3        1 MOL     -0.052635
     43 C14         4.1060   -0.1500    0.0200 c         1 MOL      0.013010
     44 O6          4.0380   -0.1790   -1.2350 o         1 MOL     -0.388552
     45 C15         2.7870   -1.6210    1.7280 c3        1 MOL     -0.091631
     46 C16         1.5090   -2.0140    1.1480 c         1 MOL      0.649534
     47 O7          1.0150   -1.2470    0.2890 o         1 MOL     -0.662842
     48 O8          0.9720   -3.0980    1.5360 o         1 MOL     -0.662842
     49 H21         3.0560   -2.7860   -0.6860 hn        1 MOL      0.312294
     50 H22         4.8580   -1.5620    1.3950 h1        1 MOL      0.130341
     51 H23         2.7160   -0.6860    2.2810 hc        1 MOL     -0.003502
     52 H24         3.0830   -2.4750    2.3430 hc        1 MOL     -0.003502
     53 N5          4.2580    0.9820    0.6590 n         1 MOL      0.003312
     54 C17         4.2080    2.2620   -0.0210 c3        1 MOL     -0.131783
     55 C18         2.8760    2.6300   -0.7670 c         1 MOL      0.589162
     56 O9          1.7980    2.0750   -0.5100 o         1 MOL     -0.659775
     57 H25         4.4170    0.8570    1.6520 hn        1 MOL      0.248522
     58 H26         4.9580    2.3400   -0.8110 h1        1 MOL      0.067422
     59 H27         4.4690    3.0090    0.7240 h1        1 MOL      0.067422
     60 N6          2.9850    3.6400   -1.6610 n         1 MOL     -0.385669
     61 C19         1.8400    4.3470   -2.3100 c3        1 MOL      0.108353
     62 C20         2.1080    5.8450   -2.5640 c         1 MOL      0.444657
     63 O10         3.2770    6.2130   -2.8920 o         1 MOL     -0.533359
     64 C21         1.4270    3.7070   -3.6970 c3        1 MOL     -0.257887
     65 C22         0.8450    2.3590   -3.5730 c         1 MOL      0.668729
     66 O11         1.3830    1.4370   -4.1800 o         1 MOL     -0.659597
     67 O12        -0.1510    2.2300   -2.7790 o         1 MOL     -0.659597
     68 H28         3.8980    4.0460   -1.7990 hn        1 MOL      0.269618
     69 H29         0.9920    4.2570   -1.6280 h1        1 MOL      0.070717
     70 H30         2.2880    3.7820   -4.3650 hc        1 MOL      0.089550
     71 H31         0.6920    4.3110   -4.2130 hc        1 MOL      0.089550
     72 N7          1.1680    6.7500   -2.4820 n         1 MOL     -0.447623
     73 C23        -0.2710    6.5350   -2.3420 c3        1 MOL      0.108002
     74 C24        -0.6960    5.9970   -0.9710 c         1 MOL      0.457851
     75 O13         0.0200    6.1250    0.0410 o         1 MOL     -0.484878
     76 H32         1.5490    7.6780   -2.5420 hn        1 MOL      0.310746
     77 H33        -0.6380    5.8200   -3.0700 h1        1 MOL      0.037325
     78 H34        -0.9090    7.3880   -2.5600 h1        1 MOL      0.037325
     79 N8         -1.8880    5.4910   -0.9970 n         1 MOL     -0.545502
     80 C25        -2.5570    5.0000    0.2220 c3        1 MOL      0.096002
     81 C26        -1.8270    3.7570    0.7650 c         1 MOL      0.818207
     82 O14        -1.3600    2.8660    0.0000 o         1 MOL     -0.626821
     83 C27        -4.0750    4.7160   -0.0790 c3        1 MOL      0.281089
     84 C28        -4.7890    4.1940    1.2380 c3        1 MOL     -0.260220
     85 O15        -4.2660    3.7880   -1.1350 oh        1 MOL     -0.598227
     86 H35        -2.3020    5.3630   -1.9090 hn        1 MOL      0.334030
     87 H36        -2.5260    5.8050    0.9620 h1        1 MOL      0.042948
     88 H37        -4.4950    5.6940   -0.3040 h1        1 MOL      0.005166
     89 H38        -5.2050    3.5880   -1.0870 ho        1 MOL      0.400359
     90 H39        -5.8720    4.3240    1.1770 hc        1 MOL      0.058835
     91 H40        -4.4120    3.1760    1.3450 hc        1 MOL      0.058835
     92 H41        -4.5360    4.8620    2.0670 hc        1 MOL      0.058835
     93 N9         -1.7140    3.6900    2.1020 n         1 MOL     -0.557633
     94 C29        -0.9390    2.6200    2.9200 c3        1 MOL     -0.186083
     95 C30        -1.4920    1.2080    2.6760 c         1 MOL      0.572299
     96 O16        -1.1540    0.5820    1.6980 o         1 MOL     -0.494156
     97 C31         0.6140    2.8610    2.8130 c3        1 MOL      0.163862
     98 C32         1.1040    4.2700    3.1980 c3        1 MOL      0.080530
     99 C33         1.3270    1.7800    3.6280 c3        1 MOL     -0.615700
    100 C34         2.6040    4.3920    2.8490 c3        1 MOL     -0.078360
    101 H42        -2.0060    4.4380    2.6970 hn        1 MOL      0.283990
    102 H43        -1.1340    2.8220    3.9610 h1        1 MOL      0.098193
    103 H44         0.9080    2.6950    1.7820 hc        1 MOL      0.093710
    104 H45         0.9720    4.3500    4.2790 hc        1 MOL     -0.025649
    105 H46         0.5960    5.0210    2.5860 hc        1 MOL     -0.025649
    106 H47         1.2520    1.9840    4.7010 hc        1 MOL      0.161113
    107 H48         0.7640    0.8610    3.4690 hc        1 MOL      0.161113
    108 H49         2.3790    1.6540    3.3330 hc        1 MOL      0.161113
    109 H50         2.6670    4.4760    1.7680 hc        1 MOL      0.022714
    110 H51         2.9250    5.3530    3.2510 hc        1 MOL      0.022714
    111 H52         3.2020    3.5470    3.1910 hc        1 MOL      0.022714
    112 N10        -2.3890    0.6050    3.5430 n         1 MOL     -0.338956
    113 C35        -2.7910   -0.8160    3.5920 c3        1 MOL     -0.230733
    114 C36        -4.0690   -1.0110    2.7670 c         1 MOL      0.537438
    115 O17        -4.5270   -2.0760    2.4710 o         1 MOL     -0.532115
    116 C37        -3.0340   -1.4180    5.0030 c3        1 MOL      0.392522
    117 C38        -3.9970   -0.6130    5.8750 c3        1 MOL     -0.215840
    118 O18        -1.7710   -1.3380    5.6780 oh        1 MOL     -0.646710
    119 H53        -2.6920    1.1550    4.3380 hn        1 MOL      0.254819
    120 H54        -2.0230   -1.3970    3.0740 h1        1 MOL      0.161653
    121 H55        -3.3620   -2.4470    4.8870 h1        1 MOL      0.022957
    122 H56        -1.1000   -1.7880    5.1670 ho        1 MOL      0.412830
    123 H57        -3.9340    0.4600    5.6780 hc        1 MOL      0.065611
    124 H58        -5.0350   -0.9190    5.7550 hc        1 MOL      0.065611
    125 H59        -3.7550   -0.7310    6.9380 hc        1 MOL      0.065611
    126 N11        -4.8600    0.0510    2.6340 n         1 MOL     -0.211179
    127 C39        -6.2820    0.0220    2.0140 c3        1 MOL     -0.352156
    128 C40        -6.2650   -0.5840    0.6260 c         1 MOL      0.830220
    129 O19        -5.7130    0.0190   -0.2960 o         1 MOL     -0.592129
    130 C41        -7.0120    1.3770    2.0710 c3        1 MOL      0.584744
    131 C42        -8.4070    1.2610    1.5240 c3        1 MOL     -0.410349
    132 O20        -6.9800    1.9370    3.3030 oh        1 MOL     -0.642808
    133 H60        -4.5390    0.8950    3.0890 hn        1 MOL      0.134894
    134 H61        -6.8580   -0.6710    2.6290 h1        1 MOL      0.097664
    135 H62        -6.4690    1.9800    1.3480 h1        1 MOL     -0.103400
    136 H63        -6.1110    2.2140    3.6120 ho        1 MOL      0.405632
    137 H64        -8.9330    0.6320    2.2540 hc        1 MOL      0.111849
    138 H65        -8.9550    2.2110    1.4940 hc        1 MOL      0.111849
    139 H66        -8.3750    0.9950    0.4680 hc        1 MOL      0.111849
    140 N12        -6.9420   -1.6770    0.4550 n         1 MOL     -0.667671
    141 C43        -7.0790   -2.4050   -0.8090 c3        1 MOL      0.487764
    142 C44        -5.8190   -2.6450   -1.6600 c         1 MOL      0.435806
    143 O21        -5.8340   -2.2620   -2.8370 o         1 MOL     -0.495242
    144 C45        -8.2540   -1.9350   -1.5590 c3        1 MOL     -0.803679
    145 C46        -9.6670   -1.9850   -0.8950 c3        1 MOL      0.596218
    146 C47       -10.8390   -1.6740   -1.8400 c3        1 MOL     -0.192039
    147 C48       -12.2410   -1.9790   -1.3590 c3        1 MOL     -0.042121
    148 N13       -12.6440   -1.3470   -0.0740 n4        1 MOL     -0.117834
    149 H67        -7.2090   -2.0810    1.3370 hn        1 MOL      0.299314
    150 H68        -7.3520   -3.4230   -0.5140 h1        1 MOL     -0.001535
    151 H69        -8.4010   -2.6040   -2.4090 hc        1 MOL      0.204818
    152 H70        -8.2320   -0.8850   -1.8720 hc        1 MOL      0.204818
    153 H71        -9.6210   -1.2080   -0.1350 hc        1 MOL     -0.131572
    154 H72        -9.9310   -2.9380   -0.4200 hc        1 MOL     -0.131572
    155 H73       -10.7380   -2.3630   -2.6790 hc        1 MOL      0.066231
    156 H74       -10.8730   -0.6260   -2.1400 hc        1 MOL      0.066231
    157 H75       -12.2830   -3.0620   -1.2030 hx        1 MOL      0.106117
    158 H76       -12.9940   -1.7260   -2.1000 hx        1 MOL      0.106117
    159 H77       -12.6970   -0.3420   -0.1940 hn        1 MOL      0.171116
    160 H78       -13.5360   -1.6100    0.3190 hn        1 MOL      0.171116
    161 H79       -11.9750   -1.4240    0.6800 hn        1 MOL      0.171116
    162 N14        -4.7270   -3.0640   -1.0250 n         1 MOL     -0.465035
    163 C49        -3.3890   -3.0460   -1.5520 c3        1 MOL      0.374398
    164 C50        -2.3620   -2.6820   -0.4650 c         1 MOL      0.120444
    165 O22        -2.0530   -1.5250   -0.3750 o         1 MOL     -0.440523
    166 C51        -3.0330   -4.2330   -2.3840 c3        1 MOL     -0.227334
    167 C52        -3.8710   -4.5700   -3.5560 c3        1 MOL     -0.163415
    168 C53        -3.6500   -5.9940   -4.0010 c         1 MOL      0.727551
    169 O23        -4.2340   -6.9560   -3.4280 o         1 MOL     -0.629997
    170 O24        -2.9550   -6.2190   -5.0160 o         1 MOL     -0.629997
    171 H80        -4.8010   -3.3950   -0.0720 hn        1 MOL      0.284426
    172 H81        -3.2830   -2.1440   -2.1620 h1        1 MOL      0.029138
    173 H82        -3.0900   -5.0740   -1.6810 hc        1 MOL      0.087271
    174 H83        -1.9980   -4.1540   -2.7250 hc        1 MOL      0.087271
    175 H84        -3.7080   -3.9370   -4.4230 hc        1 MOL      0.041010
    176 H85        -4.9210   -4.6240   -3.2720 hc        1 MOL      0.041010
    177 N15        -1.7710   -3.5350    0.4000 n         1 MOL     -0.189241
    178 C54        -2.0800   -4.9790    0.8260 c3        1 MOL     -0.119639
    179 H86        -1.2210   -5.3920    1.3550 h1        1 MOL      0.069130
    180 H87        -2.9490   -4.9860    1.4830 h1        1 MOL      0.069130
    181 H88        -2.2870   -5.5830   -0.0580 h1        1 MOL      0.069130
    182 H89        -1.0640   -3.0790    0.9630 hn        1 MOL      0.243199
    183 Ca1        -0.4200    0.4770   -0.8860 Ca        1 MOL      1.731065
    184 O25        -3.0880    0.8440   -1.1040 oh        1 MOL     -0.880579
    185 H90        -3.8710    0.5280   -0.6440 ho        1 MOL      0.433228
    186 H91        -3.4170    1.1170   -1.9700 ho        1 MOL      0.433228
    187 O26        -1.0920   -0.6820   -3.3180 oh        1 MOL     -0.880579
    188 H92        -0.3710   -1.2690   -3.5420 ho        1 MOL      0.433228
    189 H93        -1.7120   -0.7760   -4.0470 ho        1 MOL      0.433228
    190 O27         1.7220   -0.3600   -2.4060 oh        1 MOL     -0.880579
    191 H94         1.7980    0.2430   -3.1450 ho        1 MOL      0.433228
    192 H95         2.4840   -0.1760   -1.8640 ho        1 MOL      0.433228
@<TRIPOS>BOND
     1    1    2 1   
     2    1    4 1   
     3    1    5 1   
     4    1    6 1   
     5    2    3 2   
     6    2    7 1   
     7    7    8 1   
     8    7   15 1   
     9    8    9 1   
    10    8   11 1   
    11    8   16 1   
    12    9   10 2   
    13    9   19 1   
    14   11   12 1   
    15   11   17 1   
    16   11   18 1   
    17   12   13 1   
    18   12   14 1   
    19   19   20 1   
    20   19   28 1   
    21   20   21 1   
    22   20   23 1   
    23   20   29 1   
    24   21   22 2   
    25   21   41 1   
    26   23   24 1   
    27   23   30 1   
    28   23   31 1   
    29   24   25 1   
    30   24   32 1   
    31   24   33 1   
    32   25   26 1   
    33   25   34 1   
    34   25   35 1   
    35   26   27 1   
    36   26   36 1   
    37   26   37 1   
    38   27   38 1   
    39   27   39 1   
    40   27   40 1   
    41   41   42 1   
    42   41   49 1   
    43   42   43 1   
    44   42   45 1   
    45   42   50 1   
    46   43   44 2   
    47   43   53 1   
    48   45   46 1   
    49   45   51 1   
    50   45   52 1   
    51   46   47 1   
    52   46   48 1   
    53   53   54 1   
    54   53   57 1   
    55   54   55 1   
    56   54   58 1   
    57   54   59 1   
    58   55   56 2   
    59   55   60 1   
    60   60   61 1   
    61   60   68 1   
    62   61   62 1   
    63   61   64 1   
    64   61   69 1   
    65   62   63 2   
    66   62   72 1   
    67   64   65 1   
    68   64   70 1   
    69   64   71 1   
    70   65   66 1   
    71   65   67 1   
    72   72   73 1   
    73   72   76 1   
    74   73   74 1   
    75   73   77 1   
    76   73   78 1   
    77   74   75 2   
    78   74   79 1   
    79   79   80 1   
    80   79   86 1   
    81   80   81 1   
    82   80   83 1   
    83   80   87 1   
    84   81   82 2   
    85   81   93 1   
    86   83   84 1   
    87   83   85 1   
    88   83   88 1   
    89   84   90 1   
    90   84   91 1   
    91   84   92 1   
    92   85   89 1   
    93   93   94 1   
    94   93  101 1   
    95   94   95 1   
    96   94   97 1   
    97   94  102 1   
    98   95   96 2   
    99   95  112 1   
   100   97   98 1   
   101   97   99 1   
   102   97  103 1   
   103   98  100 1   
   104   98  104 1   
   105   98  105 1   
   106   99  106 1   
   107   99  107 1   
   108   99  108 1   
   109  100  109 1   
   110  100  110 1   
   111  100  111 1   
   112  112  113 1   
   113  112  119 1   
   114  113  114 1   
   115  113  116 1   
   116  113  120 1   
   117  114  115 2   
   118  114  126 1   
   119  116  117 1   
   120  116  118 1   
   121  116  121 1   
   122  117  123 1   
   123  117  124 1   
   124  117  125 1   
   125  118  122 1   
   126  126  127 1   
   127  126  133 1   
   128  127  128 1   
   129  127  130 1   
   130  127  134 1   
   131  128  129 2   
   132  128  140 1   
   133  130  131 1   
   134  130  132 1   
   135  130  135 1   
   136  131  137 1   
   137  131  138 1   
   138  131  139 1   
   139  132  136 1   
   140  140  141 1   
   141  140  149 1   
   142  141  142 1   
   143  141  144 1   
   144  141  150 1   
   145  142  143 2   
   146  142  162 1   
   147  144  145 1   
   148  144  151 1   
   149  144  152 1   
   150  145  146 1   
   151  145  153 1   
   152  145  154 1   
   153  146  147 1   
   154  146  155 1   
   155  146  156 1   
   156  147  148 1   
   157  147  157 1   
   158  147  158 1   
   159  148  159 1   
   160  148  160 1   
   161  148  161 1   
   162  162  163 1   
   163  162  171 1   
   164  163  164 1   
   165  163  166 1   
   166  163  172 1   
   167  164  165 2   
   168  164  177 1   
   169  166  167 1   
   170  166  173 1   
   171  166  174 1   
   172  167  168 1   
   173  167  175 1   
   174  167  176 1   
   175  168  169 1   
   176  168  170 1   
   177  177  178 1   
   178  177  182 1   
   179  178  179 1   
   180  178  180 1   
   181  178  181 1   
   182  184  185 1   
   183  184  186 1   
   184  187  188 1   
   185  187  189 1   
   186  190  191 1   
   187  190  192 1   
@<TRIPOS>SUBSTRUCTURE
     1 MOL         1 TEMP              0 ****  ****    0 ROOT
