@<TRIPOS>MOLECULE
MOL
  184   179     1     0     0
SMALL
resp


@<TRIPOS>ATOM
      1 C1          5.5700    7.8330   -0.7250 c3        1 MOL     -0.364419
      2 C2          4.7380    6.7510    0.0240 c         1 MOL      0.597142
      3 O1          4.0460    7.0800    0.9570 o         1 MOL     -0.569179
      4 H1          6.6310    7.6640   -0.5440 hc        1 MOL      0.102508
      5 H2          5.3690    7.7710   -1.7940 hc        1 MOL      0.102508
      6 H3          5.2930    8.8220   -0.3600 hc        1 MOL      0.102508
      7 N1          4.6730    5.5140   -0.4340 n         1 MOL     -0.310058
      8 C3          5.4740    5.0290   -1.5280 c3        1 MOL      0.002807
      9 C4          7.0060    4.8480   -1.2000 c         1 MOL      0.429532
     10 O2          7.9180    5.1660   -2.0330 o         1 MOL     -0.527693
     11 C5          4.8320    3.8030   -2.0820 c3        1 MOL     -0.221599
     12 C6          4.6110    2.7320   -1.0010 c         1 MOL      0.681407
     13 O3          3.4810    2.6790   -0.4070 o         1 MOL     -0.656421
     14 O4          5.4810    1.9370   -0.5990 o         1 MOL     -0.656421
     15 H4          4.0060    4.9080    0.0160 hn        1 MOL      0.221803
     16 H5          5.4570    5.8220   -2.2850 h1        1 MOL      0.079315
     17 H6          5.4810    3.3340   -2.8330 hc        1 MOL      0.081889
     18 H7          3.8580    3.9850   -2.5350 hc        1 MOL      0.081889
     19 N2          7.2970    4.4200    0.0580 n         1 MOL     -0.525699
     20 C7          8.6600    4.2040    0.5060 c3        1 MOL      0.428607
     21 C8          9.2220    2.8060    0.1670 c         1 MOL      0.302295
     22 O5         10.4330    2.5620    0.3490 o         1 MOL     -0.520056
     23 C9          8.6890    4.5410    1.9600 c3        1 MOL     -0.237870
     24 H8          6.5610    4.0740    0.6670 hn        1 MOL      0.285523
     25 H9          9.3990    4.8720    0.0660 h1        1 MOL      0.024122
     26 H10         9.7390    4.5900    2.2440 hc        1 MOL      0.047470
     27 H11         8.2300    5.5040    2.2180 hc        1 MOL      0.047470
     28 H12         8.1620    3.7320    2.4770 hc        1 MOL      0.047470
     29 N3          8.3250    1.7780   -0.2620 n         1 MOL     -0.178510
     30 C10         8.8020    0.4130   -0.5650 c3        1 MOL      0.152825
     31 C11         8.3630    0.0620   -1.9670 c         1 MOL      0.282049
     32 O6          9.2820   -0.4320   -2.7180 o         1 MOL     -0.513936
     33 C12         8.2790   -0.6260    0.5180 c3        1 MOL     -0.227380
     34 C13         6.7830   -0.5250    0.8730 c         1 MOL      0.746424
     35 O7          6.4150    0.0890    1.9000 o         1 MOL     -0.731910
     36 O8          5.9790   -0.9120    0.0320 o         1 MOL     -0.731910
     37 H13         7.3430    2.0010   -0.3810 hn        1 MOL      0.102089
     38 H14         9.8910    0.4160   -0.4900 h1        1 MOL      0.084175
     39 H15         8.8680   -0.4100    1.4060 hc        1 MOL      0.036659
     40 H16         8.4670   -1.6380    0.1710 hc        1 MOL      0.036659
     41 N4          7.0820    0.2620   -2.3380 n         1 MOL     -0.175614
     42 C14         6.4330   -0.2310   -3.5830 c3        1 MOL     -0.122238
     43 C15         6.1680   -1.7430   -3.5570 c         1 MOL      0.413543
     44 O9          6.0440   -2.3880   -4.6440 o         1 MOL     -0.536831
     45 H17         6.4820    0.5960   -1.5930 hn        1 MOL      0.194903
     46 H18         7.0770    0.0480   -4.4210 h1        1 MOL      0.102675
     47 H19         5.5240    0.3450   -3.7770 h1        1 MOL      0.102675
     48 N5          6.1120   -2.4070   -2.3570 n         1 MOL     -0.278434
     49 C16         5.9380   -3.9000   -2.1360 c3        1 MOL      0.188018
     50 C17         4.8740   -4.1560   -1.0830 c         1 MOL      0.466397
     51 O10         5.1280   -4.9790   -0.2150 o         1 MOL     -0.525727
     52 C18         7.3500   -4.4240   -1.7840 c3        1 MOL     -0.199172
     53 C19         7.5100   -5.8910   -2.1050 c         1 MOL      0.671683
     54 N6          6.8980   -6.7660   -1.3620 n         1 MOL     -0.805861
     55 O11         8.3020   -6.2460   -2.9340 o         1 MOL     -0.595775
     56 H20         6.1410   -1.8320   -1.5270 hn        1 MOL      0.295601
     57 H21         5.6340   -4.3300   -3.0930 h1        1 MOL      0.032640
     58 H22         7.5230   -4.3950   -0.7070 hc        1 MOL      0.079722
     59 H23         8.0920   -3.8430   -2.3340 hc        1 MOL      0.079722
     60 H24         6.2750   -6.4100   -0.6510 hn        1 MOL      0.353423
     61 H25         7.1750   -7.7340   -1.4710 hn        1 MOL      0.353423
     62 N7          3.6970   -3.5730   -1.0570 n         1 MOL     -0.454101
     63 C20         2.6290   -3.8270   -0.0820 c3        1 MOL      0.184111
     64 C21         2.5510   -2.9290    1.1130 c         1 MOL      0.761177
     65 O12         3.2330   -1.9280    1.2600 o         1 MOL     -0.669169
     66 H26         3.3930   -2.9620   -1.7960 hn        1 MOL      0.231008
     67 H27         2.7850   -4.8480    0.2720 h1        1 MOL      0.041220
     68 H28         1.6690   -3.8040   -0.5860 h1        1 MOL      0.041220
     69 N8          1.6000   -3.1040    2.0000 n         1 MOL     -0.678539
     70 C22         0.7130   -4.2320    2.0870 c3        1 MOL     -0.246003
     71 C23        -0.7790   -3.8370    1.9860 c         1 MOL      0.773749
     72 O13        -1.5800   -4.6860    1.7080 o         1 MOL     -0.591351
     73 C24         1.0450   -5.1220    3.3710 c3        1 MOL      0.575788
     74 C25         2.4730   -5.7360    3.3190 c3        1 MOL     -0.575376
     75 O14         0.9630   -4.4170    4.6260 oh        1 MOL     -0.679260
     76 H29         1.5690   -2.4890    2.7910 hn        1 MOL      0.376266
     77 H30         0.8910   -4.8620    1.2100 h1        1 MOL      0.088113
     78 H31         0.3280   -5.9420    3.4460 h1        1 MOL     -0.030548
     79 H32         0.7990   -4.9850    5.3910 ho        1 MOL      0.410532
     80 H33         3.2280   -4.9740    3.1430 hc        1 MOL      0.144213
     81 H34         2.5490   -6.3500    4.2250 hc        1 MOL      0.144213
     82 H35         2.4610   -6.5110    2.5550 hc        1 MOL      0.144213
     83 N9         -1.1070   -2.5160    2.1970 n         1 MOL     -0.498245
     84 C26        -2.5150   -2.0120    2.1300 c3        1 MOL     -0.014895
     85 C27        -2.5890   -0.7640    1.1930 c         1 MOL      0.518558
     86 O15        -1.7160    0.1780    1.3080 o         1 MOL     -0.522750
     87 C28        -2.9590   -1.7880    3.6050 c3        1 MOL      0.055425
     88 C29        -3.0340   -3.0420    4.4590 c3        1 MOL      0.067018
     89 C30        -4.3130   -1.0960    3.5240 c3        1 MOL     -0.060276
     90 C31        -3.2750   -2.6770    5.8770 c3        1 MOL     -0.321627
     91 H36        -0.3270   -1.8950    2.3100 hn        1 MOL      0.214723
     92 H37        -3.0710   -2.8570    1.7200 h1        1 MOL      0.142620
     93 H38        -2.2460   -1.0650    3.9910 hc        1 MOL      0.040338
     94 H39        -2.1100   -3.5980    4.2880 hc        1 MOL     -0.021485
     95 H40        -3.8880   -3.6430    4.1460 hc        1 MOL     -0.021485
     96 H41        -4.6810   -0.7910    4.4950 hc        1 MOL      0.051040
     97 H42        -4.2620   -0.0960    3.1050 hc        1 MOL      0.051040
     98 H43        -5.1180   -1.7620    3.1880 hc        1 MOL      0.051040
     99 H44        -2.5580   -1.9480    6.2540 hc        1 MOL      0.073709
    100 H45        -4.2590   -2.2030    5.9020 hc        1 MOL      0.073709
    101 H46        -3.3450   -3.6300    6.4090 hc        1 MOL      0.073709
    102 N10        -3.6610   -0.6100    0.3670 n         1 MOL     -0.590056
    103 C32        -4.7230   -1.5480    0.0160 c3        1 MOL      0.510244
    104 C33        -6.0210   -0.7970   -0.4520 c         1 MOL      0.431187
    105 O16        -6.0300    0.3500   -0.9790 o         1 MOL     -0.459921
    106 C34        -4.3140   -2.6580   -0.9700 c3        1 MOL     -0.538781
    107 C35        -3.7000   -2.2760   -2.2790 c         1 MOL      0.930564
    108 O17        -2.8610   -3.0620   -2.8000 o         1 MOL     -0.776302
    109 O18        -4.0530   -1.3270   -2.8870 o         1 MOL     -0.776302
    110 H47        -3.7650    0.3020   -0.0510 hn        1 MOL      0.321540
    111 H48        -4.9830   -2.0110    0.9640 h1        1 MOL     -0.096323
    112 H49        -5.1640   -3.3160   -1.1520 hc        1 MOL      0.082244
    113 H50        -3.6170   -3.1750   -0.3140 hc        1 MOL      0.082244
    114 N11        -7.1960   -1.3980   -0.3030 n         1 MOL     -0.494073
    115 C36        -8.5060   -0.8210   -0.6760 c3        1 MOL      0.584161
    116 C37        -9.2740   -0.1690    0.5200 c         1 MOL     -0.006071
    117 O19        -9.1090   -0.5880    1.6630 o         1 MOL     -0.456933
    118 C38        -9.4850   -1.8560   -1.3020 c3        1 MOL     -0.005674
    119 C39        -9.0570   -2.3920   -2.6740 ca        1 MOL     -0.090199
    120 C40        -9.4130   -1.7060   -3.8880 ca        1 MOL     -0.057577
    121 C41        -8.2510   -3.5420   -2.7740 ca        1 MOL     -0.057577
    122 C42        -9.0330   -2.1530   -5.1310 ca        1 MOL     -0.207490
    123 C43        -7.8690   -4.0350   -4.0220 ca        1 MOL     -0.207490
    124 C44        -8.2690   -3.3110   -5.1910 ca        1 MOL      0.033752
    125 H51        -7.1400   -2.2950    0.1560 hn        1 MOL      0.240267
    126 H52        -8.3050   -0.1170   -1.4870 h1        1 MOL      0.035768
    127 H53       -10.4750   -1.3990   -1.3680 hc        1 MOL      0.000135
    128 H54        -9.6110   -2.7580   -0.6950 hc        1 MOL      0.000135
    129 H55        -9.9700   -0.7940   -3.7740 ha        1 MOL      0.078035
    130 H56        -7.9900   -3.9960   -1.8330 ha        1 MOL      0.078035
    131 H57        -9.3320   -1.7320   -6.0740 ha        1 MOL      0.130464
    132 H58        -7.1410   -4.8200   -4.1540 ha        1 MOL      0.130464
    133 H59        -8.0100   -3.6590   -6.1760 ha        1 MOL      0.055690
    134 N12       -10.1100    0.8710    0.2880 n         1 MOL      0.190856
    135 C45       -10.2290    1.6710   -0.9360 c3        1 MOL      0.233644
    136 C46        -8.9040    2.4210   -1.2650 c         1 MOL      0.210691
    137 O20        -8.5130    2.6230   -2.3710 o         1 MOL     -0.468859
    138 C47       -11.4950    2.6230   -0.7760 c3        1 MOL     -0.226430
    139 C48       -12.1930    1.8500    0.3200 c3        1 MOL     -0.045168
    140 C49       -11.1000    1.3150    1.2690 c3        1 MOL     -0.339633
    141 H60       -10.3890    0.9890   -1.7680 h1        1 MOL     -0.047131
    142 H61       -11.1210    3.6010   -0.4600 hc        1 MOL      0.087525
    143 H62       -12.0870    2.6720   -1.6910 hc        1 MOL      0.087525
    144 H63       -12.8580    2.5320    0.8480 hc        1 MOL      0.036928
    145 H64       -12.7020    0.9650   -0.0580 hc        1 MOL      0.036928
    146 H65       -10.7050    2.1660    1.8320 h1        1 MOL      0.144598
    147 H66       -11.6220    0.5560    1.8610 h1        1 MOL      0.144598
    148 N13        -8.1910    2.9320   -0.1990 n         1 MOL     -0.354416
    149 C50        -6.8830    3.5520   -0.2640 c3        1 MOL      0.187188
    150 C51        -6.8590    5.0570   -0.7760 c         1 MOL      0.374080
    151 O21        -6.9710    5.9560    0.0950 o         1 MOL     -0.556834
    152 C52        -6.2760    3.4130    1.1380 c3        1 MOL      0.154768
    153 C53        -5.9310    2.0650    1.6380 c3        1 MOL     -0.272530
    154 C54        -5.6470    2.1330    3.1780 c         1 MOL      0.695916
    155 O22        -4.6690    2.7870    3.5950 o         1 MOL     -0.728362
    156 O23        -6.3010    1.4120    3.9820 o         1 MOL     -0.728362
    157 H67        -8.5770    2.9000    0.7410 hn        1 MOL      0.260653
    158 H68        -6.2290    2.9120   -0.8720 h1        1 MOL      0.043972
    159 H69        -6.9210    3.9750    1.8120 hc        1 MOL     -0.028317
    160 H70        -5.3160    3.9310    1.1580 hc        1 MOL     -0.028317
    161 H71        -5.0670    1.6600    1.1170 hc        1 MOL      0.028781
    162 H72        -6.7370    1.3530    1.4250 hc        1 MOL      0.028781
    163 N14        -6.9080    5.3420   -2.0740 n         1 MOL     -0.279806
    164 C55        -6.2880    4.6060   -3.2000 c3        1 MOL     -0.118507
    165 H73        -5.7640    3.7300   -2.8170 h1        1 MOL      0.079384
    166 H74        -7.0620    4.2880   -3.8980 h1        1 MOL      0.079384
    167 H75        -5.5800    5.2570   -3.7140 h1        1 MOL      0.079384
    168 H76        -7.0990    6.3160   -2.2450 hn        1 MOL      0.234833
    169 Ca1         4.0420    0.7410    1.3350 Ca        1 MOL      1.755013
    170 O24         2.7440   -0.2630   -1.1520 oh        1 MOL     -0.813995
    171 H77         1.9090    0.0730   -1.4640 ho        1 MOL      0.404056
    172 H78         2.9830   -0.9510   -1.7840 ho        1 MOL      0.404056
    173 O25         1.4330    1.0140    1.3240 oh        1 MOL     -0.813995
    174 H79         1.0180    0.6720    0.5310 ho        1 MOL      0.404056
    175 H80         0.8670    0.7150    2.0410 ho        1 MOL      0.404056
    176 O26         4.3580   -0.6210    3.7480 oh        1 MOL     -0.813995
    177 H81         4.9080   -0.4800    4.5150 ho        1 MOL      0.404056
    178 H82         3.7340   -1.2880    4.0330 ho        1 MOL      0.404056
    179 O27         5.3950    3.0590    2.0210 oh        1 MOL     -0.813995
    180 H83         5.8380    2.8060    2.8340 ho        1 MOL      0.404056
    181 H84         4.9760    3.8970    2.2240 ho        1 MOL      0.404056
    182 O28         3.0560    2.0020    3.7780 oh        1 MOL     -0.813995
    183 H85         3.4690    2.5520    4.4390 ho        1 MOL      0.404056
    184 H86         2.4240    1.4720    4.2570 ho        1 MOL      0.404056
@<TRIPOS>BOND
     1    1    2 1   
     2    1    4 1   
     3    1    5 1   
     4    1    6 1   
     5    2    3 2   
     6    2    7 1   
     7    7    8 1   
     8    7   15 1   
     9    8    9 1   
    10    8   11 1   
    11    8   16 1   
    12    9   10 2   
    13    9   19 1   
    14   11   12 1   
    15   11   17 1   
    16   11   18 1   
    17   12   13 1   
    18   12   14 1   
    19   19   20 1   
    20   19   24 1   
    21   20   21 1   
    22   20   23 1   
    23   20   25 1   
    24   21   22 2   
    25   21   29 1   
    26   23   26 1   
    27   23   27 1   
    28   23   28 1   
    29   29   30 1   
    30   29   37 1   
    31   30   31 1   
    32   30   33 1   
    33   30   38 1   
    34   31   32 2   
    35   31   41 1   
    36   33   34 1   
    37   33   39 1   
    38   33   40 1   
    39   34   35 1   
    40   34   36 1   
    41   41   42 1   
    42   41   45 1   
    43   42   43 1   
    44   42   46 1   
    45   42   47 1   
    46   43   44 2   
    47   43   48 1   
    48   48   49 1   
    49   48   56 1   
    50   49   50 1   
    51   49   52 1   
    52   49   57 1   
    53   50   51 2   
    54   50   62 1   
    55   52   53 1   
    56   52   58 1   
    57   52   59 1   
    58   53   54 1   
    59   53   55 2   
    60   54   60 1   
    61   54   61 1   
    62   62   63 1   
    63   62   66 1   
    64   63   64 1   
    65   63   67 1   
    66   63   68 1   
    67   64   65 2   
    68   64   69 1   
    69   69   70 1   
    70   69   76 1   
    71   70   71 1   
    72   70   73 1   
    73   70   77 1   
    74   71   72 2   
    75   71   83 1   
    76   73   74 1   
    77   73   75 1   
    78   73   78 1   
    79   74   80 1   
    80   74   81 1   
    81   74   82 1   
    82   75   79 1   
    83   83   84 1   
    84   83   91 1   
    85   84   85 1   
    86   84   87 1   
    87   84   92 1   
    88   85   86 2   
    89   85  102 1   
    90   87   88 1   
    91   87   89 1   
    92   87   93 1   
    93   88   90 1   
    94   88   94 1   
    95   88   95 1   
    96   89   96 1   
    97   89   97 1   
    98   89   98 1   
    99   90   99 1   
   100   90  100 1   
   101   90  101 1   
   102  102  103 1   
   103  102  110 1   
   104  103  104 1   
   105  103  106 1   
   106  103  111 1   
   107  104  105 2   
   108  104  114 1   
   109  106  107 1   
   110  106  112 1   
   111  106  113 1   
   112  107  108 1   
   113  107  109 1   
   114  114  115 1   
   115  114  125 1   
   116  115  116 1   
   117  115  118 1   
   118  115  126 1   
   119  116  117 2   
   120  116  134 1   
   121  118  119 1   
   122  118  127 1   
   123  118  128 1   
   124  119  120 ar  
   125  119  121 ar  
   126  120  122 ar  
   127  120  129 1   
   128  121  123 ar  
   129  121  130 1   
   130  122  124 ar  
   131  122  131 1   
   132  123  124 ar  
   133  123  132 1   
   134  124  133 1   
   135  134  135 1   
   136  134  140 1   
   137  135  136 1   
   138  135  138 1   
   139  135  141 1   
   140  136  137 2   
   141  136  148 1   
   142  138  139 1   
   143  138  142 1   
   144  138  143 1   
   145  139  140 1   
   146  139  144 1   
   147  139  145 1   
   148  140  146 1   
   149  140  147 1   
   150  148  149 1   
   151  148  157 1   
   152  149  150 1   
   153  149  152 1   
   154  149  158 1   
   155  150  151 2   
   156  150  163 1   
   157  152  153 1   
   158  152  159 1   
   159  152  160 1   
   160  153  154 1   
   161  153  161 1   
   162  153  162 1   
   163  154  155 1   
   164  154  156 1   
   165  163  164 1   
   166  163  168 1   
   167  164  165 1   
   168  164  166 1   
   169  164  167 1   
   170  170  171 1   
   171  170  172 1   
   172  173  174 1   
   173  173  175 1   
   174  176  177 1   
   175  176  178 1   
   176  179  180 1   
   177  179  181 1   
   178  182  183 1   
   179  182  184 1   
@<TRIPOS>SUBSTRUCTURE
     1 MOL         1 TEMP              0 ****  ****    0 ROOT
