@<TRIPOS>MOLECULE
MOL
  195   189     1     0     0
SMALL
resp


@<TRIPOS>ATOM
      1 C1         -3.3110    5.5770    2.5080 c3        1 MOL     -0.493984
      2 C2         -4.7900    5.5100    2.2100 c         1 MOL      0.686825
      3 O1         -5.3540    6.4740    1.7800 o         1 MOL     -0.582019
      4 H1         -3.0090    4.6780    3.0460 hc        1 MOL      0.121960
      5 H2         -2.7540    5.6450    1.5730 hc        1 MOL      0.121960
      6 H3         -3.1030    6.4540    3.1200 hc        1 MOL      0.121960
      7 N1         -5.3140    4.3370    2.4090 n         1 MOL     -0.559693
      8 C3         -6.7030    3.8140    2.1070 c3        1 MOL      0.019162
      9 C4         -7.0880    3.9000    0.6290 c         1 MOL      0.677349
     10 O2         -6.2730    4.1190   -0.2650 o         1 MOL     -0.554723
     11 C5         -7.7890    4.6060    2.9610 c3        1 MOL     -0.196118
     12 C6         -9.0670    3.8530    3.2340 c         1 MOL      0.597695
     13 O3        -10.0420    4.5310    3.6230 o         1 MOL     -0.666913
     14 O4         -9.0950    2.6350    2.8340 o         1 MOL     -0.666913
     15 H4         -4.6030    3.6840    2.7070 hn        1 MOL      0.319241
     16 H5         -6.6670    2.7960    2.4900 h1        1 MOL      0.114470
     17 H6         -8.0110    5.5820    2.5140 hc        1 MOL      0.060891
     18 H7         -7.3210    5.0240    3.8490 hc        1 MOL      0.060891
     19 N2         -8.3520    3.6500    0.3200 n         1 MOL     -0.589973
     20 C7         -8.8770    3.2530   -1.0130 c3        1 MOL      0.081188
     21 C8         -8.0100    2.1270   -1.7210 c         1 MOL      0.468123
     22 O5         -8.0030    2.0440   -2.9630 o         1 MOL     -0.558023
     23 C9         -9.0270    4.4880   -2.0000 c3        1 MOL     -0.057012
     24 C10        -9.5940    5.7590   -1.4820 c3        1 MOL      0.093048
     25 C11        -9.7710    6.9210   -2.4960 c3        1 MOL     -0.267738
     26 C12        -8.5220    7.2680   -3.3560 c3        1 MOL      0.073745
     27 N3         -7.4800    8.0940   -2.6980 n4        1 MOL     -0.346026
     28 H8         -9.0010    3.5110    1.0900 hn        1 MOL      0.317888
     29 H9         -9.8470    2.8090   -0.7670 h1        1 MOL      0.101881
     30 H10        -9.8170    4.2420   -2.7130 hc        1 MOL      0.036909
     31 H11        -8.1140    4.7130   -2.5540 hc        1 MOL      0.036909
     32 H12        -8.8940    6.1100   -0.7300 hc        1 MOL      0.015545
     33 H13       -10.5800    5.5380   -1.0680 hc        1 MOL      0.015545
     34 H14       -10.0400    7.8200   -1.9560 hc        1 MOL      0.100845
     35 H15       -10.6060    6.6080   -3.1220 hc        1 MOL      0.100845
     36 H16        -8.8680    7.6640   -4.3120 hx        1 MOL      0.077083
     37 H17        -7.9660    6.3690   -3.6090 hx        1 MOL      0.077083
     38 H18        -6.7800    8.2240   -3.4130 hn        1 MOL      0.328457
     39 H19        -7.8550    8.9790   -2.3840 hn        1 MOL      0.328457
     40 H20        -7.0020    7.6450   -1.9330 hn        1 MOL      0.328457
     41 N4         -7.5740    1.2060   -0.8960 n         1 MOL     -0.472008
     42 C13        -6.7190    0.0350   -1.0410 c3        1 MOL      0.327723
     43 C14        -6.7910   -0.9160    0.1220 c         1 MOL      0.416205
     44 O6         -6.6840   -0.4440    1.2750 o         1 MOL     -0.560891
     45 C15        -5.2960    0.4930   -1.2770 c3        1 MOL     -0.444068
     46 C16        -4.2500   -0.6040   -1.2400 c         1 MOL      1.002811
     47 O7         -4.5210   -1.7190   -1.6640 o         1 MOL     -0.797687
     48 O8         -3.1200   -0.3270   -0.7570 o         1 MOL     -0.797687
     49 H21        -7.7530    1.4500    0.0710 hn        1 MOL      0.271040
     50 H22        -7.0100   -0.5350   -1.9220 h1        1 MOL      0.042857
     51 H23        -5.0670    1.1740   -0.4560 hc        1 MOL      0.105649
     52 H24        -5.2200    0.8970   -2.2800 hc        1 MOL      0.105649
     53 N5         -7.1180   -2.1850    0.0560 n         1 MOL     -0.286496
     54 C17        -7.7900   -2.9370   -0.9490 c3        1 MOL     -0.054994
     55 C18        -7.0800   -4.3340   -1.3100 c         1 MOL      0.469360
     56 O9         -7.6560   -5.4070   -1.1370 o         1 MOL     -0.558269
     57 H25        -7.0120   -2.6520    0.9380 hn        1 MOL      0.283603
     58 H26        -7.7960   -2.4500   -1.9230 h1        1 MOL      0.069258
     59 H27        -8.8450   -3.1060   -0.7440 h1        1 MOL      0.069258
     60 N6         -5.7910   -4.3440   -1.5970 n         1 MOL     -0.223093
     61 C19        -4.9040   -5.5120   -1.6430 c3        1 MOL      0.043387
     62 C20        -3.6570   -5.2590   -0.7440 c         1 MOL      0.456105
     63 O10        -3.1900   -4.1230   -0.6190 o         1 MOL     -0.619953
     64 C21        -4.4520   -5.8560   -3.0760 c3        1 MOL     -0.089210
     65 C22        -3.9560   -4.6340   -3.8380 c         1 MOL      0.523652
     66 O11        -2.8640   -4.0670   -3.5570 o         1 MOL     -0.624911
     67 O12        -4.5610   -4.2100   -4.8450 o         1 MOL     -0.624911
     68 H28        -5.2700   -3.4750   -1.5670 hn        1 MOL      0.223612
     69 H29        -5.5450   -6.3400   -1.3420 h1        1 MOL      0.044138
     70 H30        -5.3330   -6.2600   -3.5800 hc        1 MOL      0.038943
     71 H31        -3.7190   -6.6530   -2.9600 hc        1 MOL      0.038943
     72 N7         -3.1210   -6.3540   -0.1610 n         1 MOL     -0.325219
     73 C23        -1.7340   -6.4730    0.4210 c3        1 MOL     -0.165260
     74 C24        -1.2060   -5.4120    1.3900 c         1 MOL      0.425608
     75 O13        -0.0630   -5.4070    1.7720 o         1 MOL     -0.510268
     76 H32        -3.6910   -7.1930   -0.2380 hn        1 MOL      0.272489
     77 H33        -0.9640   -6.5520   -0.3480 h1        1 MOL      0.114239
     78 H34        -1.7880   -7.4910    0.8120 h1        1 MOL      0.114239
     79 N8         -2.1090   -4.5020    1.8110 n         1 MOL     -0.114233
     80 C25        -1.8220   -3.4220    2.7350 c3        1 MOL     -0.284018
     81 C26        -0.9210   -2.4060    2.0280 c         1 MOL      0.366603
     82 O14        -1.0220   -2.2380    0.7940 o         1 MOL     -0.414464
     83 C27        -3.0640   -2.7400    3.2910 c3        1 MOL      0.350324
     84 C28        -3.8510   -2.0770    2.1790 c3        1 MOL      0.012079
     85 O15        -3.9690   -3.6660    3.8710 oh        1 MOL     -0.577974
     86 H35        -3.0540   -4.6580    1.4840 hn        1 MOL      0.175407
     87 H36        -1.1940   -3.7760    3.5630 h1        1 MOL      0.113098
     88 H37        -2.8190   -1.9830    4.0330 h1        1 MOL     -0.009984
     89 H38        -3.4480   -4.4090    4.1710 ho        1 MOL      0.361675
     90 H39        -3.3100   -1.2230    1.7610 hc        1 MOL      0.011189
     91 H40        -4.0240   -2.8080    1.3820 hc        1 MOL      0.011189
     92 H41        -4.8340   -1.8250    2.5610 hc        1 MOL      0.011189
     93 N9         -0.0730   -1.6300    2.7210 n         1 MOL     -0.134276
     94 C29         0.4430   -0.2670    2.2960 c3        1 MOL     -0.406667
     95 C30         1.8330   -0.3940    1.5860 c         1 MOL      0.645503
     96 O16         2.3140    0.6870    1.1660 o         1 MOL     -0.532589
     97 C31         0.3550    0.6920    3.5550 c3        1 MOL      0.164230
     98 C32         1.4920    0.4610    4.6490 c3        1 MOL     -0.038067
     99 C33        -1.0650    0.6130    4.1920 c3        1 MOL     -0.019128
    100 C34         1.4150    1.4370    5.8530 c3        1 MOL     -0.200836
    101 H42         0.2260   -1.8700    3.6550 hn        1 MOL      0.225955
    102 H43        -0.2880    0.1360    1.5940 h1        1 MOL      0.183963
    103 H44         0.4250    1.7490    3.2740 hc        1 MOL      0.030774
    104 H45         2.4290    0.6180    4.1110 hc        1 MOL      0.028167
    105 H46         1.4390   -0.6100    4.8230 hc        1 MOL      0.028167
    106 H47        -1.8960    0.6850    3.4780 hc        1 MOL     -0.000006
    107 H48        -1.2120   -0.1810    4.9150 hc        1 MOL     -0.000006
    108 H49        -1.2510    1.5310    4.7610 hc        1 MOL     -0.000006
    109 H50         0.5060    1.1560    6.3880 hc        1 MOL      0.062518
    110 H51         2.1280    1.3610    6.6750 hc        1 MOL      0.062518
    111 H52         1.3790    2.4610    5.4920 hc        1 MOL      0.062518
    112 N10         2.3910   -1.6310    1.4460 n         1 MOL     -0.447306
    113 C35         3.6790   -1.8920    0.7550 c3        1 MOL      0.196043
    114 C36         4.8000   -2.2490    1.6680 c         1 MOL      0.381040
    115 O17         4.5620   -2.7060    2.8110 o         1 MOL     -0.513324
    116 C37         3.6080   -2.8580   -0.4040 c3        1 MOL      0.306646
    117 C38         2.9300   -4.1360    0.1220 c3        1 MOL     -0.401650
    118 O18         2.8080   -2.3580   -1.4300 oh        1 MOL     -0.619095
    119 H53         1.8800   -2.3820    1.8800 hn        1 MOL      0.225994
    120 H54         3.9610   -0.9100    0.3720 h1        1 MOL      0.005924
    121 H55         4.6160   -3.0630   -0.7750 h1        1 MOL      0.019286
    122 H56         2.6440   -3.0210   -2.1010 ho        1 MOL      0.409152
    123 H57         3.5710   -4.5580    0.8880 hc        1 MOL      0.111735
    124 H58         1.9070   -3.9880    0.5030 hc        1 MOL      0.111735
    125 H59         2.9000   -4.8330   -0.7160 hc        1 MOL      0.111735
    126 N11         5.9910   -1.9720    1.2140 n         1 MOL     -0.237144
    127 C39         7.3100   -2.2890    1.7730 c3        1 MOL     -0.161324
    128 C40         8.4260   -1.2090    1.5020 c         1 MOL      0.633288
    129 O19         9.3900   -1.0620    2.2680 o         1 MOL     -0.543375
    130 C41         7.6390   -3.7330    1.2010 c3        1 MOL      0.306608
    131 C42         8.2330   -3.6140   -0.2160 c3        1 MOL     -0.105767
    132 O20         6.4860   -4.6250    1.2910 oh        1 MOL     -0.584531
    133 H60         5.8960   -1.4910    0.3330 hn        1 MOL      0.217707
    134 H61         7.3260   -2.3600    2.8670 h1        1 MOL      0.119191
    135 H62         8.4560   -4.1620    1.7720 h1        1 MOL      0.002584
    136 H63         6.6800   -5.0050    2.1430 ho        1 MOL      0.394391
    137 H64         8.4060   -4.6080   -0.6280 hc        1 MOL      0.033860
    138 H65         7.6950   -2.9660   -0.9070 hc        1 MOL      0.033860
    139 H66         9.2600   -3.2850   -0.0810 hc        1 MOL      0.033860
    140 N12         8.3770   -0.3850    0.3790 n         1 MOL     -0.672830
    141 C43         9.4680    0.5430    0.0020 c3        1 MOL      0.332187
    142 C44         8.8700    1.5870   -0.9240 c         1 MOL      0.311620
    143 O21         7.9970    1.2190   -1.7100 o         1 MOL     -0.479326
    144 C45        10.6000   -0.2290   -0.6240 c3        1 MOL     -0.557355
    145 C46        11.7540    0.8000   -0.8290 c3        1 MOL      0.219470
    146 C47        13.1570    0.2570   -0.9930 c3        1 MOL     -0.082228
    147 C48        14.2230    1.3480   -1.3340 c3        1 MOL     -0.093326
    148 N13        14.2420    2.5690   -0.4370 n4        1 MOL     -0.363108
    149 H67         7.5960   -0.4380   -0.2610 hn        1 MOL      0.312789
    150 H68         9.8120    1.0350    0.9050 h1        1 MOL      0.053520
    151 H69        10.2290   -0.6740   -1.5500 hc        1 MOL      0.174920
    152 H70        10.8270   -0.9950    0.1180 hc        1 MOL      0.174920
    153 H71        11.6850    1.5150   -0.0090 hc        1 MOL      0.012163
    154 H72        11.4330    1.4390   -1.6510 hc        1 MOL      0.012163
    155 H73        13.2030   -0.5040   -1.7590 hc        1 MOL      0.041368
    156 H74        13.5480   -0.1900   -0.0770 hc        1 MOL      0.041368
    157 H75        13.9310    1.7810   -2.2870 hx        1 MOL      0.123554
    158 H76        15.1680    0.8300   -1.4750 hx        1 MOL      0.123554
    159 H77        13.3990    3.1290   -0.4070 hn        1 MOL      0.299951
    160 H78        14.4420    2.3430    0.5210 hn        1 MOL      0.299951
    161 H79        14.8920    3.2840   -0.7620 hn        1 MOL      0.299951
    162 N14         9.2290    2.8610   -0.7870 n         1 MOL     -0.187508
    163 C49         8.7210    3.9590   -1.5320 c3        1 MOL      0.147710
    164 C50         7.2370    4.1070   -1.5790 c         1 MOL      0.437291
    165 O22         6.7670    4.1620   -2.6680 o         1 MOL     -0.523347
    166 C51         9.3730    5.3160   -1.1790 c3        1 MOL      0.121785
    167 C52        10.7480    5.5630   -1.8220 c3        1 MOL     -0.298744
    168 C53        11.7510    4.4640   -1.4520 c         1 MOL      0.740851
    169 O23        12.1660    3.8370   -2.4320 o         1 MOL     -0.702805
    170 O24        12.0240    4.2120   -0.2560 o         1 MOL     -0.702805
    171 H80         9.8610    3.0090   -0.0160 hn        1 MOL      0.158112
    172 H81         8.9940    3.7700   -2.5670 h1        1 MOL      0.061166
    173 H82         9.4960    5.4300   -0.1070 hc        1 MOL     -0.008926
    174 H83         8.7120    6.0880   -1.5810 hc        1 MOL     -0.008926
    175 H84        11.0750    6.5250   -1.4050 hc        1 MOL      0.075106
    176 H85        10.6690    5.7170   -2.9010 hc        1 MOL      0.075106
    177 N15         6.4790    4.2500   -0.4710 n         1 MOL     -0.457736
    178 C54         7.0180    4.8070    0.8030 c3        1 MOL      0.076988
    179 H86         7.3110    3.9890    1.4620 h1        1 MOL      0.021866
    180 H87         7.8870    5.4300    0.5900 h1        1 MOL      0.021866
    181 H88         6.2500    5.4080    1.2910 h1        1 MOL      0.021866
    182 H89         5.4900    4.2380   -0.6930 hn        1 MOL      0.316005
    183 Ca1        -1.7700   -2.3080   -1.7490 Ca        1 MOL      1.705379
    184 O25        -0.0500   -4.3640   -1.3760 oh        1 MOL     -0.834906
    185 H90        -0.2140   -5.1890   -1.8190 ho        1 MOL      0.399874
    186 H91         0.8130   -4.4630   -0.9700 ho        1 MOL      0.399874
    187 O26        -2.6000   -0.9130   -3.8280 oh        1 MOL     -0.834906
    188 H92        -2.6070   -1.4750   -4.5990 ho        1 MOL      0.399874
    189 H93        -2.7890   -0.0410   -4.1640 ho        1 MOL      0.399874
    190 O27         0.2370   -0.6700   -1.7380 oh        1 MOL     -0.834906
    191 H94         1.1510   -0.7360   -1.4430 ho        1 MOL      0.399874
    192 H95         0.1440    0.2510   -2.0070 ho        1 MOL      0.399874
    193 O28        -0.5120   -2.9980   -3.9520 oh        1 MOL     -0.834906
    194 H96        -1.3320   -3.3280   -4.3030 ho        1 MOL      0.399874
    195 H97         0.0780   -2.9670   -4.7170 ho        1 MOL      0.399874
@<TRIPOS>BOND
     1    1    2 1   
     2    1    4 1   
     3    1    5 1   
     4    1    6 1   
     5    2    3 2   
     6    2    7 1   
     7    7    8 1   
     8    7   15 1   
     9    8    9 1   
    10    8   11 1   
    11    8   16 1   
    12    9   10 2   
    13    9   19 1   
    14   11   12 1   
    15   11   17 1   
    16   11   18 1   
    17   12   13 1   
    18   12   14 1   
    19   19   20 1   
    20   19   28 1   
    21   20   21 1   
    22   20   23 1   
    23   20   29 1   
    24   21   22 2   
    25   21   41 1   
    26   23   24 1   
    27   23   30 1   
    28   23   31 1   
    29   24   25 1   
    30   24   32 1   
    31   24   33 1   
    32   25   26 1   
    33   25   34 1   
    34   25   35 1   
    35   26   27 1   
    36   26   36 1   
    37   26   37 1   
    38   27   38 1   
    39   27   39 1   
    40   27   40 1   
    41   41   42 1   
    42   41   49 1   
    43   42   43 1   
    44   42   45 1   
    45   42   50 1   
    46   43   44 2   
    47   43   53 1   
    48   45   46 1   
    49   45   51 1   
    50   45   52 1   
    51   46   47 1   
    52   46   48 1   
    53   53   54 1   
    54   53   57 1   
    55   54   55 1   
    56   54   58 1   
    57   54   59 1   
    58   55   56 2   
    59   55   60 1   
    60   60   61 1   
    61   60   68 1   
    62   61   62 1   
    63   61   64 1   
    64   61   69 1   
    65   62   63 2   
    66   62   72 1   
    67   64   65 1   
    68   64   70 1   
    69   64   71 1   
    70   65   66 1   
    71   65   67 1   
    72   72   73 1   
    73   72   76 1   
    74   73   74 1   
    75   73   77 1   
    76   73   78 1   
    77   74   75 2   
    78   74   79 1   
    79   79   80 1   
    80   79   86 1   
    81   80   81 1   
    82   80   83 1   
    83   80   87 1   
    84   81   82 2   
    85   81   93 1   
    86   83   84 1   
    87   83   85 1   
    88   83   88 1   
    89   84   90 1   
    90   84   91 1   
    91   84   92 1   
    92   85   89 1   
    93   93   94 1   
    94   93  101 1   
    95   94   95 1   
    96   94   97 1   
    97   94  102 1   
    98   95   96 2   
    99   95  112 1   
   100   97   98 1   
   101   97   99 1   
   102   97  103 1   
   103   98  100 1   
   104   98  104 1   
   105   98  105 1   
   106   99  106 1   
   107   99  107 1   
   108   99  108 1   
   109  100  109 1   
   110  100  110 1   
   111  100  111 1   
   112  112  113 1   
   113  112  119 1   
   114  113  114 1   
   115  113  116 1   
   116  113  120 1   
   117  114  115 2   
   118  114  126 1   
   119  116  117 1   
   120  116  118 1   
   121  116  121 1   
   122  117  123 1   
   123  117  124 1   
   124  117  125 1   
   125  118  122 1   
   126  126  127 1   
   127  126  133 1   
   128  127  128 1   
   129  127  130 1   
   130  127  134 1   
   131  128  129 2   
   132  128  140 1   
   133  130  131 1   
   134  130  132 1   
   135  130  135 1   
   136  131  137 1   
   137  131  138 1   
   138  131  139 1   
   139  132  136 1   
   140  140  141 1   
   141  140  149 1   
   142  141  142 1   
   143  141  144 1   
   144  141  150 1   
   145  142  143 2   
   146  142  162 1   
   147  144  145 1   
   148  144  151 1   
   149  144  152 1   
   150  145  146 1   
   151  145  153 1   
   152  145  154 1   
   153  146  147 1   
   154  146  155 1   
   155  146  156 1   
   156  147  148 1   
   157  147  157 1   
   158  147  158 1   
   159  148  159 1   
   160  148  160 1   
   161  148  161 1   
   162  162  163 1   
   163  162  171 1   
   164  163  164 1   
   165  163  166 1   
   166  163  172 1   
   167  164  165 2   
   168  164  177 1   
   169  166  167 1   
   170  166  173 1   
   171  166  174 1   
   172  167  168 1   
   173  167  175 1   
   174  167  176 1   
   175  168  169 1   
   176  168  170 1   
   177  177  178 1   
   178  177  182 1   
   179  178  179 1   
   180  178  180 1   
   181  178  181 1   
   182  184  185 1   
   183  184  186 1   
   184  187  188 1   
   185  187  189 1   
   186  190  191 1   
   187  190  192 1   
   188  193  194 1   
   189  193  195 1   
@<TRIPOS>SUBSTRUCTURE
     1 MOL         1 TEMP              0 ****  ****    0 ROOT
