@<TRIPOS>MOLECULE
MOL
  192   187     1     0     0
SMALL
resp


@<TRIPOS>ATOM
      1 C1          4.7850   -2.2360   -2.6060 c3        1 MOL     -0.348186
      2 C2          3.9660   -2.8700   -1.4700 c         1 MOL      1.019676
      3 O1          3.0950   -2.2160   -0.9400 o         1 MOL     -0.566081
      4 H1          4.4140   -2.5960   -3.5650 hc        1 MOL      0.052868
      5 H2          4.6880   -1.1520   -2.5620 hc        1 MOL      0.052868
      6 H3          5.8330   -2.5120   -2.4960 hc        1 MOL      0.052868
      7 N1          4.2010   -4.0960   -1.1760 n         1 MOL     -0.945240
      8 C3          3.3290   -4.7480   -0.2180 c3        1 MOL     -0.052735
      9 C4          1.8590   -4.8020   -0.5910 c         1 MOL      0.874778
     10 O2          0.9410   -4.5610    0.2500 o         1 MOL     -0.571302
     11 C5          3.5780   -4.3390    1.2460 c3        1 MOL     -0.513447
     12 C6          5.0080   -3.9700    1.6100 c         1 MOL      0.774549
     13 O3          5.2400   -2.8660    2.1170 o         1 MOL     -0.668795
     14 O4          5.8730   -4.8470    1.4250 o         1 MOL     -0.668795
     15 H4          4.8810   -4.5780   -1.7350 hn        1 MOL      0.393160
     16 H5          3.6070   -5.8030   -0.3290 h1        1 MOL      0.125161
     17 H6          3.2280   -5.1400    1.9070 hc        1 MOL      0.169877
     18 H7          2.9880   -3.4640    1.4850 hc        1 MOL      0.169877
     19 N2          1.5480   -5.2220   -1.8110 n         1 MOL     -0.757157
     20 C7          0.1330   -5.4470   -2.2330 c3        1 MOL     -0.179495
     21 C8         -0.3860   -6.7830   -1.6370 c         1 MOL      0.610404
     22 O5          0.3870   -7.7280   -1.5490 o         1 MOL     -0.588500
     23 C9         -0.0020   -5.3730   -3.7450 c3        1 MOL      0.176903
     24 C10         0.7400   -6.5270   -4.4950 c3        1 MOL      0.236923
     25 C11         0.3720   -4.0140   -4.3170 c3        1 MOL      0.046313
     26 C12         0.4290   -6.8470   -5.8870 c3        1 MOL     -0.215283
     27 H8          2.3280   -5.3970   -2.4340 hn        1 MOL      0.407221
     28 H9         -0.5240   -4.6910   -1.8160 h1        1 MOL      0.219724
     29 H10        -1.0500   -5.4590   -4.0390 hc        1 MOL     -0.037798
     30 H11         0.6090   -7.4430   -3.9170 hc        1 MOL     -0.071426
     31 H12         1.7850   -6.2590   -4.3510 hc        1 MOL     -0.071426
     32 H13         0.1500   -3.8850   -5.3820 hc        1 MOL     -0.027068
     33 H14        -0.1960   -3.2770   -3.7570 hc        1 MOL     -0.027068
     34 H15         1.4410   -3.8900   -4.1470 hc        1 MOL     -0.027068
     35 H16         0.4880   -5.9310   -6.4820 hc        1 MOL      0.033344
     36 H17         1.1110   -7.6280   -6.2540 hc        1 MOL      0.033344
     37 H18        -0.5750   -7.2490   -6.0340 hc        1 MOL      0.033344
     38 N3         -1.6150   -6.9360   -1.2020 n         1 MOL     -0.510739
     39 C13        -2.5410   -5.8920   -0.7690 c3        1 MOL      0.145805
     40 C14        -3.3320   -6.2440    0.4620 c         1 MOL      0.657252
     41 O6         -3.5410   -7.4280    0.6800 o         1 MOL     -0.602270
     42 C15        -3.4690   -5.5640   -2.0030 c3        1 MOL     -0.343937
     43 C16        -4.7290   -4.7450   -1.7970 c         1 MOL      0.729217
     44 O7         -4.7900   -3.8900   -0.8810 o         1 MOL     -0.723662
     45 O8         -5.6550   -4.8680   -2.6380 o         1 MOL     -0.723662
     46 H19        -1.8830   -7.8710   -0.9200 hn        1 MOL      0.294498
     47 H20        -1.9540   -5.0150   -0.4810 h1        1 MOL     -0.001128
     48 H21        -3.8100   -6.4880   -2.4680 hc        1 MOL      0.079929
     49 H22        -2.8860   -4.9620   -2.6970 hc        1 MOL      0.079929
     50 N4         -3.6550   -5.2340    1.2390 n         1 MOL     -0.335022
     51 C17        -4.1680   -5.4620    2.6010 c3        1 MOL     -0.235990
     52 C18        -5.1750   -4.4580    3.1320 c         1 MOL      0.756109
     53 O9         -5.7700   -4.6740    4.1950 o         1 MOL     -0.632856
     54 H23        -3.6610   -4.3230    0.8160 hn        1 MOL      0.236050
     55 H24        -3.2310   -5.4620    3.1440 h1        1 MOL      0.101708
     56 H25        -4.6350   -6.4300    2.7860 h1        1 MOL      0.101708
     57 N5         -5.2790   -3.2860    2.5430 n         1 MOL     -0.706207
     58 C19        -6.0500   -2.1120    3.0730 c3        1 MOL      0.151896
     59 C20        -7.0550   -1.5040    2.1260 c         1 MOL      0.621080
     60 O10        -8.1120   -1.0370    2.5310 o         1 MOL     -0.636148
     61 C21        -5.0950   -1.0330    3.5590 c3        1 MOL      0.038408
     62 C22        -4.0090   -0.5950    2.5280 c         1 MOL      0.667408
     63 O11        -3.1140   -1.3510    2.2990 o         1 MOL     -0.675040
     64 O12        -4.1720    0.5150    1.9710 o         1 MOL     -0.675040
     65 H26        -4.5380   -3.1560    1.8720 hn        1 MOL      0.359762
     66 H27        -6.7090   -2.4100    3.8910 h1        1 MOL      0.053178
     67 H28        -4.6110   -1.2340    4.5200 hc        1 MOL     -0.052541
     68 H29        -5.7660   -0.2150    3.8250 hc        1 MOL     -0.052541
     69 N6         -6.7250   -1.4460    0.8710 n         1 MOL     -0.315833
     70 C23        -7.5160   -0.8710   -0.2400 c3        1 MOL     -0.274601
     71 C24        -7.7900    0.6520   -0.1870 c         1 MOL      0.629423
     72 O13        -8.6010    1.1700   -0.8640 o         1 MOL     -0.607470
     73 H30        -5.7590   -1.6790    0.7180 hn        1 MOL      0.298771
     74 H31        -8.4670   -1.3970   -0.3140 h1        1 MOL      0.145083
     75 H32        -6.9960   -1.0560   -1.1850 h1        1 MOL      0.145083
     76 N7         -7.2600    1.3780    0.8280 n         1 MOL     -0.053047
     77 C25        -7.3330    2.8780    1.0220 c3        1 MOL     -0.139848
     78 C26        -6.8740    3.7740   -0.2380 c         1 MOL      0.300837
     79 O14        -6.9150    4.9910   -0.1810 o         1 MOL     -0.502158
     80 C27        -8.7020    3.2870    1.5220 c3        1 MOL      0.028190
     81 C28        -9.2770    2.5320    2.7180 c3        1 MOL     -0.340634
     82 C29        -8.3110    2.6030    4.0040 c         1 MOL      0.697553
     83 N8         -7.4620    1.6390    4.1770 n         1 MOL     -0.830689
     84 O15        -8.3260    3.4700    4.8020 o         1 MOL     -0.609980
     85 H33        -6.5140    0.8460    1.2560 hn        1 MOL     -0.062186
     86 H34        -6.6810    3.1290    1.8650 h1        1 MOL      0.162546
     87 H35        -9.4110    3.0830    0.7180 hc        1 MOL      0.048813
     88 H36        -8.6870    4.3600    1.6980 hc        1 MOL      0.048813
     89 H37        -9.3800    1.4530    2.6200 hc        1 MOL      0.089018
     90 H38       -10.2810    2.8960    2.9670 hc        1 MOL      0.089018
     91 H39        -7.5180    0.8130    3.5930 hn        1 MOL      0.390903
     92 H40        -6.6920    1.8110    4.8070 hn        1 MOL      0.390903
     93 N9         -6.3560    3.1510   -1.2340 n         1 MOL      0.000322
     94 C30        -5.8900    3.7530   -2.5000 c3        1 MOL     -0.337905
     95 C31        -4.3840    3.7400   -2.7200 c         1 MOL      0.727053
     96 O16        -3.9530    4.3570   -3.6860 o         1 MOL     -0.589060
     97 C32        -6.7630    3.2490   -3.6730 c3        1 MOL      0.321186
     98 C33        -6.4880    1.7930   -3.9950 c3        1 MOL     -0.257081
     99 C34        -8.2900    3.4900   -3.6180 c3        1 MOL     -0.257081
    100 H41        -6.2920    2.1410   -1.1420 hn        1 MOL      0.195159
    101 H42        -6.1740    4.7900   -2.3560 h1        1 MOL      0.130401
    102 H43        -6.4630    3.7430   -4.5900 hc        1 MOL     -0.035903
    103 H44        -5.4710    1.7650   -4.3750 hc        1 MOL      0.054061
    104 H45        -6.6280    1.1790   -3.0930 hc        1 MOL      0.054061
    105 H46        -7.1300    1.4860   -4.8170 hc        1 MOL      0.054061
    106 H47        -8.8360    3.3250   -4.5490 hc        1 MOL      0.054061
    107 H48        -8.7800    2.8130   -2.9210 hc        1 MOL      0.054061
    108 H49        -8.4920    4.5340   -3.4270 hc        1 MOL      0.054061
    109 N10        -3.4840    3.2000   -1.8860 n         1 MOL     -0.575389
    110 C35        -2.0870    2.9670   -2.1720 c3        1 MOL      0.431092
    111 C36        -1.1450    3.0000   -0.9240 c         1 MOL      0.466550
    112 O17        -1.6120    3.0130    0.2130 o         1 MOL     -0.537490
    113 C37        -2.0020    1.7290   -3.0090 c3        1 MOL     -0.404295
    114 C38        -0.6320    1.4630   -3.7270 c         1 MOL      0.720326
    115 N11        -0.1630    0.2450   -3.7340 n         1 MOL     -0.805531
    116 O18         0.0140    2.4030   -4.2180 o         1 MOL     -0.587898
    117 H50        -3.8070    2.7070   -1.0640 hn        1 MOL      0.235199
    118 H51        -1.7040    3.8330   -2.7300 h1        1 MOL     -0.002265
    119 H52        -2.6990    1.8250   -3.8430 hc        1 MOL      0.114723
    120 H53        -2.2590    0.9210   -2.3260 hc        1 MOL      0.114723
    121 H54        -0.6180   -0.5800   -3.3650 hn        1 MOL      0.358093
    122 H55         0.6400    0.1260   -4.3290 hn        1 MOL      0.358093
    123 N12         0.1350    3.1360   -1.0810 n         1 MOL     -0.476231
    124 C39         1.0290    3.4380    0.0010 c3        1 MOL      0.283190
    125 C40         2.3320    3.9830   -0.6280 c         1 MOL      0.490886
    126 O19         2.5990    3.7590   -1.8070 o         1 MOL     -0.522802
    127 C41         1.1170    2.2390    0.9720 c3        1 MOL     -0.204470
    128 C42         1.6190    2.7510    2.3140 ca        1 MOL      0.116192
    129 C43         2.9890    2.6570    2.6030 ca        1 MOL     -0.184572
    130 C44         0.7370    3.2420    3.3150 ca        1 MOL     -0.184572
    131 C45         3.4970    3.1200    3.8570 ca        1 MOL     -0.271254
    132 C46         1.1820    3.6600    4.5910 ca        1 MOL     -0.271254
    133 C47         2.5840    3.5520    4.8670 ca        1 MOL      0.327064
    134 O20         3.0100    3.9510    6.0950 oh        1 MOL     -0.503817
    135 H56         0.4990    3.2300   -2.0200 hn        1 MOL      0.265183
    136 H57         0.6420    4.2530    0.6200 h1        1 MOL      0.013286
    137 H58         1.8580    1.5810    0.5160 hc        1 MOL      0.109938
    138 H59         0.2120    1.6590    1.1740 hc        1 MOL      0.109938
    139 H60         3.5860    2.0990    1.8970 ha        1 MOL      0.179941
    140 H61        -0.3320    3.3750    3.1840 ha        1 MOL      0.179941
    141 H62         4.5680    3.1670    4.0360 ha        1 MOL      0.155226
    142 H63         0.4430    3.9690    5.3130 ha        1 MOL      0.155226
    143 H64         3.9090    4.2680    6.0060 ho        1 MOL      0.351009
    144 N13         3.0680    4.7170    0.1770 n         1 MOL     -0.545922
    145 C48         4.3020    5.5010   -0.0970 c3        1 MOL      0.203129
    146 C49         5.3400    5.1040    1.0440 c         1 MOL      0.446167
    147 O21         5.3830    5.6560    2.1500 o         1 MOL     -0.562068
    148 C50         3.9510    6.9470    0.0070 c3        1 MOL     -0.288453
    149 C51         3.3840    7.3970   -1.3880 c3        1 MOL     -0.127821
    150 C52         3.3770    8.9300   -1.5420 c         1 MOL      0.657341
    151 O22         2.8440    9.5760   -0.5830 o         1 MOL     -0.679343
    152 O23         3.7220    9.5010   -2.6020 o         1 MOL     -0.679343
    153 H65         2.7300    4.7720    1.1250 hn        1 MOL      0.314136
    154 H66         4.7120    5.2390   -1.0620 h1        1 MOL      0.097887
    155 H67         4.8250    7.5860    0.1380 hc        1 MOL      0.107083
    156 H68         3.2300    7.2780    0.7410 hc        1 MOL      0.107083
    157 H69         2.3730    7.0430   -1.5510 hc        1 MOL      0.040957
    158 H70         3.8760    7.0780   -2.3150 hc        1 MOL      0.040957
    159 N14         6.0870    4.0700    0.8250 n         1 MOL     -0.181230
    160 C53         6.0650    3.1880   -0.3340 c3        1 MOL     -0.661001
    161 C54         6.7820    3.7460   -1.5710 c         1 MOL      0.824670
    162 O24         7.8020    4.3660   -1.3740 o         1 MOL     -0.573422
    163 C55         6.9260    1.9980    0.0930 c3        1 MOL      0.122775
    164 C56         6.9490    0.9020   -1.0450 c3        1 MOL     -0.217697
    165 C57         7.2830   -0.4270   -0.3540 c         1 MOL      0.897257
    166 O25         6.3930   -1.2010   -0.0060 o         1 MOL     -0.867469
    167 O26         8.4670   -0.7580   -0.1150 o         1 MOL     -0.867469
    168 H71         6.5730    3.7720    1.6570 hn        1 MOL      0.192894
    169 H72         5.0520    2.8870   -0.6070 h1        1 MOL      0.174340
    170 H73         6.4460    1.5410    0.9660 hc        1 MOL      0.076608
    171 H74         7.9530    2.2180    0.4020 hc        1 MOL      0.076608
    172 H75         7.6610    1.1250   -1.8290 hc        1 MOL      0.052313
    173 H76         5.9290    0.8110   -1.4380 hc        1 MOL      0.052313
    174 N15         6.1420    3.5520   -2.7440 n         1 MOL     -0.417121
    175 C58         6.4570    4.2050   -4.0370 c3        1 MOL     -0.142567
    176 H77         5.9980    3.6410   -4.8500 h1        1 MOL      0.078350
    177 H78         6.0660    5.2230   -4.0360 h1        1 MOL      0.078350
    178 H79         7.5370    4.2300   -4.1780 h1        1 MOL      0.078350
    179 H80         5.2960    3.0030   -2.8090 hn        1 MOL      0.304956
    180 Ca1         7.9330   -3.1060    1.3750 Ca        1 MOL      1.720579
    181 O27         7.8200   -1.0430    3.0430 oh        1 MOL     -0.873488
    182 H81         6.9750   -0.6150    3.1740 ho        1 MOL      0.411542
    183 H82         8.2880   -0.9100    3.8600 ho        1 MOL      0.411542
    184 O28         7.8570   -3.7580    3.9940 oh        1 MOL     -0.873488
    185 H83         8.4800   -4.3460    4.4230 ho        1 MOL      0.411542
    186 H84         7.7460   -3.0260    4.6090 ho        1 MOL      0.411542
    187 O29        10.3830   -3.3330    2.1760 oh        1 MOL     -0.873488
    188 H85        11.1350   -3.7430    1.7410 ho        1 MOL      0.411542
    189 H86        10.7700   -2.7320    2.8150 ho        1 MOL      0.411542
    190 O30         8.7710   -5.6570    1.8580 oh        1 MOL     -0.873488
    191 H87         9.5590   -6.1910    1.9680 ho        1 MOL      0.411542
    192 H88         8.0740   -6.1640    2.2850 ho        1 MOL      0.411542
@<TRIPOS>BOND
     1    1    2 1   
     2    1    4 1   
     3    1    5 1   
     4    1    6 1   
     5    2    3 2   
     6    2    7 1   
     7    7    8 1   
     8    7   15 1   
     9    8    9 1   
    10    8   11 1   
    11    8   16 1   
    12    9   10 2   
    13    9   19 1   
    14   11   12 1   
    15   11   17 1   
    16   11   18 1   
    17   12   13 1   
    18   12   14 1   
    19   19   20 1   
    20   19   27 1   
    21   20   21 1   
    22   20   23 1   
    23   20   28 1   
    24   21   22 2   
    25   21   38 1   
    26   23   24 1   
    27   23   25 1   
    28   23   29 1   
    29   24   26 1   
    30   24   30 1   
    31   24   31 1   
    32   25   32 1   
    33   25   33 1   
    34   25   34 1   
    35   26   35 1   
    36   26   36 1   
    37   26   37 1   
    38   38   39 1   
    39   38   46 1   
    40   39   40 1   
    41   39   42 1   
    42   39   47 1   
    43   40   41 2   
    44   40   50 1   
    45   42   43 1   
    46   42   48 1   
    47   42   49 1   
    48   43   44 1   
    49   43   45 1   
    50   50   51 1   
    51   50   54 1   
    52   51   52 1   
    53   51   55 1   
    54   51   56 1   
    55   52   53 2   
    56   52   57 1   
    57   57   58 1   
    58   57   65 1   
    59   58   59 1   
    60   58   61 1   
    61   58   66 1   
    62   59   60 2   
    63   59   69 1   
    64   61   62 1   
    65   61   67 1   
    66   61   68 1   
    67   62   63 1   
    68   62   64 1   
    69   69   70 1   
    70   69   73 1   
    71   70   71 1   
    72   70   74 1   
    73   70   75 1   
    74   71   72 2   
    75   71   76 1   
    76   76   77 1   
    77   76   85 1   
    78   77   78 1   
    79   77   80 1   
    80   77   86 1   
    81   78   79 2   
    82   78   93 1   
    83   80   81 1   
    84   80   87 1   
    85   80   88 1   
    86   81   82 1   
    87   81   89 1   
    88   81   90 1   
    89   82   83 1   
    90   82   84 2   
    91   83   91 1   
    92   83   92 1   
    93   93   94 1   
    94   93  100 1   
    95   94   95 1   
    96   94   97 1   
    97   94  101 1   
    98   95   96 2   
    99   95  109 1   
   100   97   98 1   
   101   97   99 1   
   102   97  102 1   
   103   98  103 1   
   104   98  104 1   
   105   98  105 1   
   106   99  106 1   
   107   99  107 1   
   108   99  108 1   
   109  109  110 1   
   110  109  117 1   
   111  110  111 1   
   112  110  113 1   
   113  110  118 1   
   114  111  112 2   
   115  111  123 1   
   116  113  114 1   
   117  113  119 1   
   118  113  120 1   
   119  114  115 1   
   120  114  116 2   
   121  115  121 1   
   122  115  122 1   
   123  123  124 1   
   124  123  135 1   
   125  124  125 1   
   126  124  127 1   
   127  124  136 1   
   128  125  126 2   
   129  125  144 1   
   130  127  128 1   
   131  127  137 1   
   132  127  138 1   
   133  128  129 ar  
   134  128  130 ar  
   135  129  131 ar  
   136  129  139 1   
   137  130  132 ar  
   138  130  140 1   
   139  131  133 ar  
   140  131  141 1   
   141  132  133 ar  
   142  132  142 1   
   143  133  134 1   
   144  134  143 1   
   145  144  145 1   
   146  144  153 1   
   147  145  146 1   
   148  145  148 1   
   149  145  154 1   
   150  146  147 2   
   151  146  159 1   
   152  148  149 1   
   153  148  155 1   
   154  148  156 1   
   155  149  150 1   
   156  149  157 1   
   157  149  158 1   
   158  150  151 1   
   159  150  152 1   
   160  159  160 1   
   161  159  168 1   
   162  160  161 1   
   163  160  163 1   
   164  160  169 1   
   165  161  162 2   
   166  161  174 1   
   167  163  164 1   
   168  163  170 1   
   169  163  171 1   
   170  164  165 1   
   171  164  172 1   
   172  164  173 1   
   173  165  166 1   
   174  165  167 1   
   175  174  175 1   
   176  174  179 1   
   177  175  176 1   
   178  175  177 1   
   179  175  178 1   
   180  181  182 1   
   181  181  183 1   
   182  184  185 1   
   183  184  186 1   
   184  187  188 1   
   185  187  189 1   
   186  190  191 1   
   187  190  192 1   
@<TRIPOS>SUBSTRUCTURE
     1 MOL         1 TEMP              0 ****  ****    0 ROOT
