@<TRIPOS>MOLECULE
MOL
  192   187     1     0     0
SMALL
resp


@<TRIPOS>ATOM
      1 C1          1.5890    7.6950   -2.7640 c3        1 MOL     -0.250774
      2 C2          1.7730    6.2600   -2.5900 c         1 MOL      0.716657
      3 O1          1.5130    5.4410   -3.5400 o         1 MOL     -0.611947
      4 H1          1.0160    7.8790   -3.6720 hc        1 MOL      0.061085
      5 H2          1.0520    8.0990   -1.9060 hc        1 MOL      0.061085
      6 H3          2.5620    8.1790   -2.8440 hc        1 MOL      0.061085
      7 N1          2.1530    5.8750   -1.3840 n         1 MOL     -0.567113
      8 C3          2.4320    4.4640   -1.1190 c3        1 MOL      0.122535
      9 C4          1.1900    3.6480   -0.6780 c         1 MOL      0.175956
     10 O2          1.0670    2.3930   -0.7320 o         1 MOL     -0.359296
     11 C5          3.6320    4.2970   -0.1870 c3        1 MOL     -0.164774
     12 C6          3.8630    5.1840    1.0490 c         1 MOL      0.687742
     13 O3          3.4230    6.3500    1.0740 o         1 MOL     -0.728140
     14 O4          4.5990    4.6800    1.9010 o         1 MOL     -0.728140
     15 H4          2.5180    6.5740   -0.7490 hn        1 MOL      0.320626
     16 H5          2.7340    3.9680   -2.0400 h1        1 MOL      0.080521
     17 H6          4.5520    4.4360   -0.7460 hc        1 MOL      0.075672
     18 H7          3.5170    3.3110    0.2500 hc        1 MOL      0.075672
     19 N2          0.0900    4.3340   -0.1880 n         1 MOL     -0.122824
     20 C7         -1.1860    3.8520    0.2910 c3        1 MOL      0.027273
     21 C8         -2.1670    3.5970   -0.8290 c         1 MOL      0.594842
     22 O5         -2.2160    4.4360   -1.7130 o         1 MOL     -0.566888
     23 C9         -1.6060    4.7660    1.3890 c3        1 MOL     -0.313423
     24 C10        -0.8810    4.7020    2.6990 c3        1 MOL      0.160297
     25 C11        -1.5770    5.6270    3.7080 c3        1 MOL      0.043545
     26 C12        -1.2010    5.3400    5.1080 c3        1 MOL     -0.090493
     27 N3          0.2630    5.3760    5.2500 n4        1 MOL     -0.329528
     28 H8          0.2400    5.3350   -0.1590 hn        1 MOL      0.188300
     29 H9         -1.0530    2.8750    0.7420 h1        1 MOL      0.057564
     30 H10        -2.6780    4.6940    1.6100 hc        1 MOL      0.093332
     31 H11        -1.6040    5.7720    0.9690 hc        1 MOL      0.093332
     32 H12         0.1420    4.9860    2.4490 hc        1 MOL     -0.024575
     33 H13        -0.9790    3.6530    2.9760 hc        1 MOL     -0.024575
     34 H14        -2.6430    5.3900    3.6920 hc        1 MOL      0.027646
     35 H15        -1.4120    6.6790    3.4780 hc        1 MOL      0.027646
     36 H16        -1.6300    4.3580    5.2810 hx        1 MOL      0.121742
     37 H17        -1.6350    6.1020    5.7520 hx        1 MOL      0.121742
     38 H18         0.5530    6.3350    5.1000 hn        1 MOL      0.318465
     39 H19         0.5820    5.0250    6.1360 hn        1 MOL      0.318465
     40 H20         0.7340    4.7970    4.5720 hn        1 MOL      0.318465
     41 N4         -2.9360    2.4770   -0.9660 n         1 MOL     -0.528533
     42 C13        -3.0960    1.3610   -0.0210 c3        1 MOL      0.007636
     43 C14        -3.4650    1.7960    1.3840 c         1 MOL      0.357960
     44 O6         -2.6420    1.7400    2.3250 o         1 MOL     -0.539339
     45 C15        -1.8910    0.4140   -0.0270 c3        1 MOL      0.081121
     46 C16        -1.4650   -0.0270   -1.4360 c         1 MOL      0.585788
     47 O7         -0.4390   -0.7610   -1.4720 o         1 MOL     -0.723529
     48 O8         -2.1410    0.2480   -2.4720 o         1 MOL     -0.723529
     49 H21        -3.5140    2.5270   -1.7900 hn        1 MOL      0.326522
     50 H22        -3.9360    0.6990   -0.2150 h1        1 MOL      0.053935
     51 H23        -2.2460   -0.4550    0.5300 hc        1 MOL      0.028964
     52 H24        -1.0450    0.9210    0.4440 hc        1 MOL      0.028964
     53 N5         -4.6790    2.2550    1.5970 n         1 MOL     -0.216457
     54 C17        -5.8560    2.0680    0.7560 c3        1 MOL     -0.052887
     55 C18        -7.0950    2.5120    1.4610 c         1 MOL      0.564845
     56 O9         -6.9960    2.9890    2.5990 o         1 MOL     -0.564887
     57 H25        -4.9330    2.5120    2.5340 hn        1 MOL      0.244769
     58 H26        -5.9260    1.0020    0.5210 h1        1 MOL      0.046796
     59 H27        -5.7880    2.6440   -0.1680 h1        1 MOL      0.046796
     60 N6         -8.2260    2.4780    0.7430 n         1 MOL     -0.338499
     61 C19        -8.4990    1.9170   -0.5340 c3        1 MOL     -0.022750
     62 C20        -8.3190    0.4100   -0.4380 c         1 MOL      0.496547
     63 O10        -8.8560   -0.2000    0.5100 o         1 MOL     -0.446751
     64 C21        -9.8800    2.2600   -1.0150 c3        1 MOL     -0.203252
     65 C22       -11.0780    1.7930   -0.1080 c         1 MOL      0.696335
     66 O11       -11.7540    0.8340   -0.4930 o         1 MOL     -0.685490
     67 O12       -11.4070    2.5020    0.8990 o         1 MOL     -0.685490
     68 H28        -9.0470    2.7640    1.2620 hn        1 MOL      0.226920
     69 H29        -7.8160    2.4120   -1.2230 h1        1 MOL      0.038780
     70 H30        -9.9360    2.0090   -2.0700 hc        1 MOL      0.037489
     71 H31        -9.8910    3.3520   -0.9420 hc        1 MOL      0.037489
     72 N7         -7.6390   -0.1380   -1.4250 n         1 MOL     -0.337360
     73 C23        -7.3040   -1.5290   -1.5940 c3        1 MOL     -0.146094
     74 C24        -6.3700   -2.1320   -0.5070 c         1 MOL      0.568361
     75 O13        -6.1270   -1.4730    0.5120 o         1 MOL     -0.467191
     76 H32        -7.3600    0.4030   -2.2270 hn        1 MOL      0.261488
     77 H33        -6.9120   -1.6230   -2.6100 h1        1 MOL      0.089663
     78 H34        -8.1800   -2.1890   -1.5560 h1        1 MOL      0.089663
     79 N8         -5.8750   -3.2960   -0.7800 n         1 MOL     -0.372454
     80 C25        -4.9910   -4.1780    0.0200 c3        1 MOL     -0.211497
     81 C26        -3.5950   -3.6610    0.2020 c         1 MOL      0.590465
     82 O14        -2.9060   -3.2740   -0.7500 o         1 MOL     -0.481090
     83 C27        -4.9870   -5.5570   -0.6550 c3        1 MOL      0.411940
     84 C28        -4.1450   -6.6030    0.0830 c3        1 MOL     -0.317044
     85 O15        -4.4240   -5.4930   -1.9980 oh        1 MOL     -0.659441
     86 H35        -6.1960   -3.6880   -1.6600 hn        1 MOL      0.198081
     87 H36        -5.5500   -4.2790    0.9540 h1        1 MOL      0.139561
     88 H37        -6.0070   -5.9270   -0.7190 h1        1 MOL      0.015996
     89 H38        -4.8120   -4.8380   -2.5740 ho        1 MOL      0.418503
     90 H39        -3.0870   -6.3860   -0.0680 hc        1 MOL      0.096000
     91 H40        -4.3160   -6.4230    1.1420 hc        1 MOL      0.096000
     92 H41        -4.4150   -7.6160   -0.2130 hc        1 MOL      0.096000
     93 N9         -3.1220   -3.6030    1.4910 n         1 MOL     -0.551128
     94 C29        -1.7020   -3.2630    1.7310 c3        1 MOL     -0.052654
     95 C30        -0.8380   -4.4340    1.4280 c         1 MOL      0.492485
     96 O16        -1.0940   -5.5390    1.8140 o         1 MOL     -0.537319
     97 C31        -1.5370   -2.9080    3.2430 c3        1 MOL      0.251147
     98 C32        -2.5350   -1.7810    3.5880 c3        1 MOL      0.104986
     99 C33        -0.1570   -2.4710    3.5940 c3        1 MOL     -0.262599
    100 C34        -2.5540   -1.3930    5.0860 c3        1 MOL     -0.434836
    101 H42        -3.6230   -4.1400    2.1840 hn        1 MOL      0.341767
    102 H43        -1.4490   -2.3960    1.1210 h1        1 MOL     -0.105044
    103 H44        -1.7920   -3.7940    3.8320 hc        1 MOL     -0.018889
    104 H45        -3.5300   -2.1570    3.3480 hc        1 MOL      0.034717
    105 H46        -2.2980   -0.8800    3.0170 hc        1 MOL      0.034717
    106 H47         0.4980   -3.3460    3.5800 hc        1 MOL      0.048217
    107 H48         0.2220   -1.7190    2.9080 hc        1 MOL      0.048217
    108 H49        -0.1210   -2.0830    4.6080 hc        1 MOL      0.048217
    109 H50        -3.4810   -0.8410    5.2750 hc        1 MOL      0.106049
    110 H51        -2.4920   -2.2390    5.7670 hc        1 MOL      0.106049
    111 H52        -1.7760   -0.6610    5.3100 hc        1 MOL      0.106049
    112 N10         0.3220   -4.1300    0.8720 n         1 MOL     -0.177726
    113 C35         1.4150   -5.1620    0.5490 c3        1 MOL     -0.171941
    114 C36         2.7700   -4.8740    1.2060 c         1 MOL      0.430426
    115 O17         3.6150   -5.7850    1.4370 o         1 MOL     -0.523457
    116 C37         1.5960   -5.4030   -0.9760 c3        1 MOL      0.205211
    117 C38         2.0530   -4.1550   -1.7280 c3        1 MOL     -0.243729
    118 O18         0.3000   -5.6470   -1.4970 oh        1 MOL     -0.688992
    119 H53         0.4840   -3.2220    0.4450 hn        1 MOL      0.373648
    120 H54         0.9950   -6.0860    0.9430 h1        1 MOL      0.128740
    121 H55         2.1600   -6.3100   -1.2120 h1        1 MOL      0.096778
    122 H56        -0.1410   -6.4370   -1.1910 ho        1 MOL      0.438124
    123 H57         1.3650   -3.3220   -1.5890 hc        1 MOL      0.105875
    124 H58         3.0500   -3.8410   -1.4080 hc        1 MOL      0.105875
    125 H59         2.0620   -4.4980   -2.7630 hc        1 MOL      0.105875
    126 N11         3.0400   -3.6310    1.5860 n         1 MOL     -0.349068
    127 C39         4.3890   -3.1860    2.0420 c3        1 MOL     -0.044500
    128 C40         5.5220   -3.2050    1.0010 c         1 MOL      0.448087
    129 O19         5.5840   -3.9760    0.0160 o         1 MOL     -0.445808
    130 C41         4.6530   -3.8170    3.3960 c3        1 MOL      0.502512
    131 C42         3.6210   -3.6980    4.4930 c3        1 MOL     -0.454256
    132 O20         5.7770   -3.1890    3.8760 oh        1 MOL     -0.710208
    133 H60         2.3280   -3.0090    1.2390 hn        1 MOL      0.211753
    134 H61         4.2580   -2.1390    2.3160 h1        1 MOL      0.085534
    135 H62         4.9500   -4.8670    3.3180 h1        1 MOL      0.017321
    136 H63         6.2650   -3.8500    4.3640 ho        1 MOL      0.406116
    137 H64         3.2960   -2.6770    4.7220 hc        1 MOL      0.111142
    138 H65         2.6880   -4.1950    4.2130 hc        1 MOL      0.111142
    139 H66         4.0440   -4.2100    5.3610 hc        1 MOL      0.111142
    140 N12         6.3820   -2.1790    1.1060 n         1 MOL     -0.409442
    141 C43         7.5250   -2.0680    0.1850 c3        1 MOL     -0.006093
    142 C44         7.1200   -1.3330   -1.1290 c         1 MOL      0.544449
    143 O21         7.8280   -1.5250   -2.1280 o         1 MOL     -0.531812
    144 C45         8.7620   -1.4330    0.9290 c3        1 MOL     -0.058083
    145 C46         8.7110    0.0800    0.9870 c3        1 MOL      0.431342
    146 C47         9.7700    0.5420    1.9850 c3        1 MOL     -0.358002
    147 C48         9.5650    1.9360    2.4680 c3        1 MOL     -0.068219
    148 N13         8.5920    2.0870    3.5860 n4        1 MOL     -0.291089
    149 H67         6.3010   -1.4960    1.8530 hn        1 MOL      0.267684
    150 H68         7.8440   -3.0770   -0.0740 h1        1 MOL      0.125920
    151 H69         9.6050   -1.8090    0.3560 hc        1 MOL      0.004006
    152 H70         8.7810   -1.8650    1.9290 hc        1 MOL      0.004006
    153 H71         7.7420    0.4090    1.3770 hc        1 MOL     -0.053294
    154 H72         8.8810    0.5090    0.0020 hc        1 MOL     -0.053294
    155 H73        10.7200    0.4560    1.4610 hc        1 MOL      0.106101
    156 H74         9.8500   -0.1430    2.8340 hc        1 MOL      0.106101
    157 H75         9.3160    2.6660    1.6900 hx        1 MOL      0.140846
    158 H76        10.5150    2.2640    2.8890 hx        1 MOL      0.140846
    159 H77         8.9210    2.8030    4.2190 hn        1 MOL      0.312733
    160 H78         7.6530    2.2490    3.2430 hn        1 MOL      0.312733
    161 H79         8.5650    1.2810    4.1810 hn        1 MOL      0.312733
    162 N14         6.0330   -0.5100   -1.0890 n         1 MOL     -0.348279
    163 C49         5.7420    0.4510   -2.1740 c3        1 MOL     -0.353690
    164 C50         6.5720    1.7090   -2.1100 c         1 MOL      0.524104
    165 O22         6.6790    2.4130   -1.1150 o         1 MOL     -0.555704
    166 C51         4.2280    0.7530   -2.0910 c3        1 MOL      0.568718
    167 C52         3.2470   -0.4380   -2.2570 c3        1 MOL      0.082803
    168 C53         3.1170   -1.0200   -3.6640 c         1 MOL      0.420751
    169 O23         2.0150   -1.4220   -4.0990 o         1 MOL     -0.664925
    170 O24         4.1560   -1.3790   -4.2630 o         1 MOL     -0.664925
    171 H80         5.5190   -0.4090   -0.2300 hn        1 MOL      0.230869
    172 H81         5.9230    0.0020   -3.1520 h1        1 MOL      0.242513
    173 H82         3.9230    1.6220   -2.6790 hc        1 MOL     -0.160440
    174 H83         4.1260    1.0790   -1.0550 hc        1 MOL     -0.160440
    175 H84         2.2640   -0.0390   -2.0120 hc        1 MOL     -0.088777
    176 H85         3.5000   -1.1650   -1.4920 hc        1 MOL     -0.088777
    177 N15         7.2130    2.0160   -3.2560 n         1 MOL     -0.302661
    178 C54         8.0590    3.2280   -3.5850 c3        1 MOL     -0.173014
    179 H86         7.4310    3.9980   -4.0320 h1        1 MOL      0.099397
    180 H87         8.5110    3.6150   -2.6720 h1        1 MOL      0.099397
    181 H88         8.8420    2.9450   -4.2880 h1        1 MOL      0.099397
    182 H89         7.1480    1.4300   -4.0740 hn        1 MOL      0.249723
    183 Ca1        -0.5260   -1.1640   -4.0580 Ca        1 MOL      1.755291
    184 O25        -3.0060   -1.4760   -4.7720 oh        1 MOL     -0.899570
    185 H90        -3.7380   -1.9630   -4.3890 ho        1 MOL      0.439472
    186 H91        -3.3860   -0.6350   -5.0330 ho        1 MOL      0.439472
    187 O26        -1.2920   -3.4760   -2.9240 oh        1 MOL     -0.899570
    188 H92        -0.7130   -4.2390   -2.9350 ho        1 MOL      0.439472
    189 H93        -1.9020   -3.6520   -2.2070 ho        1 MOL      0.439472
    190 O27         0.5790    1.3290   -3.0030 oh        1 MOL     -0.899570
    191 H94         0.9690    1.5700   -2.1670 ho        1 MOL      0.439472
    192 H95         0.1930    2.1370   -3.3420 ho        1 MOL      0.439472
@<TRIPOS>BOND
     1    1    2 1   
     2    1    4 1   
     3    1    5 1   
     4    1    6 1   
     5    2    3 2   
     6    2    7 1   
     7    7    8 1   
     8    7   15 1   
     9    8    9 1   
    10    8   11 1   
    11    8   16 1   
    12    9   10 2   
    13    9   19 1   
    14   11   12 1   
    15   11   17 1   
    16   11   18 1   
    17   12   13 1   
    18   12   14 1   
    19   19   20 1   
    20   19   28 1   
    21   20   21 1   
    22   20   23 1   
    23   20   29 1   
    24   21   22 2   
    25   21   41 1   
    26   23   24 1   
    27   23   30 1   
    28   23   31 1   
    29   24   25 1   
    30   24   32 1   
    31   24   33 1   
    32   25   26 1   
    33   25   34 1   
    34   25   35 1   
    35   26   27 1   
    36   26   36 1   
    37   26   37 1   
    38   27   38 1   
    39   27   39 1   
    40   27   40 1   
    41   41   42 1   
    42   41   49 1   
    43   42   43 1   
    44   42   45 1   
    45   42   50 1   
    46   43   44 2   
    47   43   53 1   
    48   45   46 1   
    49   45   51 1   
    50   45   52 1   
    51   46   47 1   
    52   46   48 1   
    53   53   54 1   
    54   53   57 1   
    55   54   55 1   
    56   54   58 1   
    57   54   59 1   
    58   55   56 2   
    59   55   60 1   
    60   60   61 1   
    61   60   68 1   
    62   61   62 1   
    63   61   64 1   
    64   61   69 1   
    65   62   63 2   
    66   62   72 1   
    67   64   65 1   
    68   64   70 1   
    69   64   71 1   
    70   65   66 1   
    71   65   67 1   
    72   72   73 1   
    73   72   76 1   
    74   73   74 1   
    75   73   77 1   
    76   73   78 1   
    77   74   75 2   
    78   74   79 1   
    79   79   80 1   
    80   79   86 1   
    81   80   81 1   
    82   80   83 1   
    83   80   87 1   
    84   81   82 2   
    85   81   93 1   
    86   83   84 1   
    87   83   85 1   
    88   83   88 1   
    89   84   90 1   
    90   84   91 1   
    91   84   92 1   
    92   85   89 1   
    93   93   94 1   
    94   93  101 1   
    95   94   95 1   
    96   94   97 1   
    97   94  102 1   
    98   95   96 2   
    99   95  112 1   
   100   97   98 1   
   101   97   99 1   
   102   97  103 1   
   103   98  100 1   
   104   98  104 1   
   105   98  105 1   
   106   99  106 1   
   107   99  107 1   
   108   99  108 1   
   109  100  109 1   
   110  100  110 1   
   111  100  111 1   
   112  112  113 1   
   113  112  119 1   
   114  113  114 1   
   115  113  116 1   
   116  113  120 1   
   117  114  115 2   
   118  114  126 1   
   119  116  117 1   
   120  116  118 1   
   121  116  121 1   
   122  117  123 1   
   123  117  124 1   
   124  117  125 1   
   125  118  122 1   
   126  126  127 1   
   127  126  133 1   
   128  127  128 1   
   129  127  130 1   
   130  127  134 1   
   131  128  129 2   
   132  128  140 1   
   133  130  131 1   
   134  130  132 1   
   135  130  135 1   
   136  131  137 1   
   137  131  138 1   
   138  131  139 1   
   139  132  136 1   
   140  140  141 1   
   141  140  149 1   
   142  141  142 1   
   143  141  144 1   
   144  141  150 1   
   145  142  143 2   
   146  142  162 1   
   147  144  145 1   
   148  144  151 1   
   149  144  152 1   
   150  145  146 1   
   151  145  153 1   
   152  145  154 1   
   153  146  147 1   
   154  146  155 1   
   155  146  156 1   
   156  147  148 1   
   157  147  157 1   
   158  147  158 1   
   159  148  159 1   
   160  148  160 1   
   161  148  161 1   
   162  162  163 1   
   163  162  171 1   
   164  163  164 1   
   165  163  166 1   
   166  163  172 1   
   167  164  165 2   
   168  164  177 1   
   169  166  167 1   
   170  166  173 1   
   171  166  174 1   
   172  167  168 1   
   173  167  175 1   
   174  167  176 1   
   175  168  169 1   
   176  168  170 1   
   177  177  178 1   
   178  177  182 1   
   179  178  179 1   
   180  178  180 1   
   181  178  181 1   
   182  184  185 1   
   183  184  186 1   
   184  187  188 1   
   185  187  189 1   
   186  190  191 1   
   187  190  192 1   
@<TRIPOS>SUBSTRUCTURE
     1 MOL         1 TEMP              0 ****  ****    0 ROOT
