@<TRIPOS>MOLECULE
MOL
  192   187     1     0     0
SMALL
resp


@<TRIPOS>ATOM
      1 C1          9.4090    1.7700    1.7190 c3        1 MOL     -0.656701
      2 C2          8.3490    1.0630    0.8760 c         1 MOL      0.897490
      3 O1          7.4080    0.4730    1.4130 o         1 MOL     -0.729871
      4 H1         10.1480    1.0430    2.0540 hc        1 MOL      0.165043
      5 H2          9.8990    2.5370    1.1190 hc        1 MOL      0.165043
      6 H3          8.9350    2.2330    2.5850 hc        1 MOL      0.165043
      7 N1          8.4260    1.2020   -0.4430 n         1 MOL     -0.704404
      8 C3          7.3130    0.9090   -1.4540 c3        1 MOL      0.223199
      9 C4          6.9560   -0.6550   -1.5840 c         1 MOL      0.512397
     10 O2          6.6880   -1.1230   -2.6530 o         1 MOL     -0.412337
     11 C5          7.5590    1.5280   -2.8070 c3        1 MOL     -0.090680
     12 C6          8.9360    1.2780   -3.4550 c         1 MOL      0.642296
     13 O3          9.1080    1.5380   -4.6750 o         1 MOL     -0.627748
     14 O4          9.8210    0.6680   -2.8560 o         1 MOL     -0.627748
     15 H4          9.2680    1.6100   -0.8160 hn        1 MOL      0.300180
     16 H5          6.4050    1.3050   -1.0000 h1        1 MOL     -0.007483
     17 H6          7.4380    2.6100   -2.7550 hc        1 MOL      0.030039
     18 H7          6.7660    1.1990   -3.4840 hc        1 MOL      0.030039
     19 N2          7.1660   -1.4170   -0.5270 n         1 MOL     -0.629114
     20 C7          7.0300   -2.8570   -0.4500 c3        1 MOL      0.274826
     21 C8          5.5700   -3.2460   -0.9330 c         1 MOL      0.258533
     22 O5          5.4770   -3.9410   -1.9460 o         1 MOL     -0.469566
     23 C9          7.4060   -3.4810    0.9090 c3        1 MOL     -0.297768
     24 C10         8.8380   -3.2530    1.3560 c3        1 MOL     -0.072102
     25 C11         9.2450   -3.8570    2.7010 c3        1 MOL     -0.079129
     26 C12        10.7210   -3.6050    2.9160 c3        1 MOL      0.191838
     27 N3         11.0320   -3.6960    4.3350 n4        1 MOL     -0.200570
     28 H8          7.3700   -0.8950    0.3150 hn        1 MOL      0.412434
     29 H9          7.7240   -3.2910   -1.1690 h1        1 MOL      0.081838
     30 H10         7.3600   -4.5540    0.7330 hc        1 MOL      0.103586
     31 H11         6.7730   -3.0010    1.6590 hc        1 MOL      0.103586
     32 H12         9.0900   -2.1890    1.3030 hc        1 MOL      0.053785
     33 H13         9.3540   -3.8100    0.5780 hc        1 MOL      0.053785
     34 H14         9.0900   -4.9350    2.7240 hc        1 MOL      0.045526
     35 H15         8.7260   -3.3180    3.5010 hc        1 MOL      0.045526
     36 H16        11.0060   -2.6270    2.5360 hx        1 MOL      0.025798
     37 H17        11.3360   -4.3190    2.3770 hx        1 MOL      0.025798
     38 H18        10.4350   -3.0910    4.8700 hn        1 MOL      0.220377
     39 H19        10.8330   -4.6400    4.6190 hn        1 MOL      0.220377
     40 H20        12.0130   -3.4630    4.4540 hn        1 MOL      0.220377
     41 N4          4.3790   -2.7590   -0.4360 n         1 MOL     -0.271950
     42 C13         4.1760   -1.7300    0.5220 c3        1 MOL      0.003052
     43 C14         3.9220   -0.3720   -0.2320 c         1 MOL      0.428381
     44 O6          3.8310   -0.2630   -1.4580 o         1 MOL     -0.479846
     45 C15         2.9700   -2.1100    1.4750 c3        1 MOL     -0.364898
     46 C16         1.5980   -2.1710    0.7870 c         1 MOL      0.928895
     47 O7          1.1740   -1.1120    0.4040 o         1 MOL     -0.789629
     48 O8          0.9480   -3.2320    0.7350 o         1 MOL     -0.789629
     49 H21         3.5680   -3.2110   -0.8280 hn        1 MOL      0.312791
     50 H22         5.0500   -1.5660    1.1410 h1        1 MOL      0.104592
     51 H23         2.8690   -1.3020    2.2030 hc        1 MOL      0.053314
     52 H24         3.2070   -3.0700    1.9270 hc        1 MOL      0.053314
     53 N5          3.8210    0.7210    0.5660 n         1 MOL     -0.180306
     54 C17         3.6990    2.1240    0.1050 c3        1 MOL     -0.087337
     55 C18         2.3430    2.5280   -0.5550 c         1 MOL      0.232330
     56 O9          1.3090    1.9630   -0.3190 o         1 MOL     -0.202823
     57 H25         3.8570    0.4620    1.5460 hn        1 MOL      0.200700
     58 H26         4.3790    2.2050   -0.7450 h1        1 MOL      0.078590
     59 H27         4.0760    2.8340    0.8380 h1        1 MOL      0.078590
     60 N6          2.5090    3.4590   -1.5050 n         1 MOL     -0.303183
     61 C19         1.3640    4.3020   -1.9480 c3        1 MOL      0.095035
     62 C20         1.7410    5.8560   -2.0640 c         1 MOL      0.513538
     63 O10         2.8150    6.2710   -2.4270 o         1 MOL     -0.514214
     64 C21         1.0540    3.7800   -3.3480 c3        1 MOL     -0.252781
     65 C22         0.7130    2.3210   -3.4070 c         1 MOL      0.639899
     66 O11        -0.2050    1.8900   -2.7320 o         1 MOL     -0.648436
     67 O12         1.4480    1.5920   -4.1500 o         1 MOL     -0.648436
     68 H28         3.4510    3.6570   -1.8220 hn        1 MOL      0.277842
     69 H29         0.4820    4.2230   -1.3090 h1        1 MOL      0.048710
     70 H30         1.9050    3.9480   -4.0120 hc        1 MOL      0.079698
     71 H31         0.2120    4.3440   -3.7540 hc        1 MOL      0.079698
     72 N7          0.8110    6.8220   -1.9010 n         1 MOL     -0.527345
     73 C23        -0.7260    6.5490   -1.7270 c3        1 MOL     -0.043943
     74 C24        -1.0920    5.9720   -0.3220 c         1 MOL      0.590809
     75 O13        -0.4670    6.1540    0.7480 o         1 MOL     -0.550351
     76 H32         1.0360    7.7710   -2.1490 hn        1 MOL      0.348199
     77 H33        -1.0550    5.8200   -2.4670 h1        1 MOL      0.081370
     78 H34        -1.2980    7.4670   -1.8840 h1        1 MOL      0.081370
     79 N8         -2.1750    5.2380   -0.3210 n         1 MOL     -0.672458
     80 C25        -2.7250    4.6170    0.9030 c3        1 MOL      0.410920
     81 C26        -1.9780    3.3530    1.3040 c         1 MOL      0.744744
     82 O14        -1.5850    2.5760    0.3950 o         1 MOL     -0.696459
     83 C27        -4.2290    4.2760    0.8600 c3        1 MOL      0.269041
     84 C28        -4.7760    3.6630    2.1260 c3        1 MOL     -0.364030
     85 O15        -4.4890    3.4950   -0.2730 oh        1 MOL     -0.597979
     86 H35        -2.5530    5.0290   -1.2300 hn        1 MOL      0.316492
     87 H36        -2.7100    5.3350    1.7250 h1        1 MOL     -0.024941
     88 H37        -4.6200    5.2890    0.7320 h1        1 MOL     -0.018793
     89 H38        -5.4310    3.5860   -0.3760 ho        1 MOL      0.399800
     90 H39        -5.8600    3.6970    2.0250 hc        1 MOL      0.089615
     91 H40        -4.4670    2.6280    2.2680 hc        1 MOL      0.089615
     92 H41        -4.5130    4.2550    3.0010 hc        1 MOL      0.089615
     93 N9         -1.7640    3.1130    2.6100 n         1 MOL     -0.792910
     94 C29        -1.0500    1.9310    3.1110 c3        1 MOL      0.177507
     95 C30        -1.6380    0.6100    2.7980 c         1 MOL      0.561544
     96 O16        -1.6880    0.2660    1.6020 o         1 MOL     -0.590710
     97 C31         0.4580    1.8640    2.9450 c3        1 MOL      0.593333
     98 C32         1.1980    3.1900    3.1230 c3        1 MOL     -0.503978
     99 C33         1.1530    0.8280    3.7500 c3        1 MOL     -0.366001
    100 C34         1.3480    3.6730    4.5640 c3        1 MOL      0.020816
    101 H42        -2.3060    3.6480    3.2730 hn        1 MOL      0.354027
    102 H43        -1.2180    2.0490    4.1810 h1        1 MOL     -0.001994
    103 H44         0.6480    1.5480    1.9190 hc        1 MOL     -0.247699
    104 H45         0.6800    3.9460    2.5260 hc        1 MOL      0.174417
    105 H46         2.2080    2.9730    2.7800 hc        1 MOL      0.174417
    106 H47         0.7990    0.9580    4.7700 hc        1 MOL      0.070940
    107 H48         0.8030   -0.1510    3.4390 hc        1 MOL      0.070940
    108 H49         2.2440    0.8630    3.7150 hc        1 MOL      0.070940
    109 H50         1.9320    4.5830    4.7010 hc        1 MOL      0.000784
    110 H51         0.3680    3.7930    5.0260 hc        1 MOL      0.000784
    111 H52         1.8060    2.8330    5.0800 hc        1 MOL      0.000784
    112 N10        -1.9790   -0.2180    3.7660 n         1 MOL     -0.366969
    113 C35        -2.3100   -1.6180    3.6180 c3        1 MOL     -0.018814
    114 C36        -3.7960   -1.7750    3.2110 c         1 MOL      0.644982
    115 O17        -4.1320   -2.8390    2.6470 o         1 MOL     -0.560313
    116 C37        -1.9930   -2.3880    4.9760 c3        1 MOL      0.421226
    117 C38        -2.1450   -3.9020    5.0260 c3        1 MOL     -0.437952
    118 O18        -2.8740   -2.0240    6.0480 oh        1 MOL     -0.651809
    119 H53        -1.8500    0.0900    4.7220 hn        1 MOL      0.185690
    120 H54        -1.7470   -2.1160    2.8320 h1        1 MOL      0.066862
    121 H55        -0.9850   -2.1500    5.2990 h1        1 MOL     -0.020012
    122 H56        -2.3060   -1.8790    6.8100 ho        1 MOL      0.403528
    123 H57        -3.0770   -4.1980    4.5380 hc        1 MOL      0.123952
    124 H58        -1.4100   -4.5000    4.4660 hc        1 MOL      0.123952
    125 H59        -2.1790   -4.2040    6.0680 hc        1 MOL      0.123952
    126 N11        -4.6790   -0.8110    3.3620 n         1 MOL     -0.449473
    127 C39        -6.0570   -0.6930    2.6930 c3        1 MOL     -0.054170
    128 C40        -5.8280   -0.7110    1.1500 c         1 MOL      0.496086
    129 O19        -5.0790    0.1340    0.6970 o         1 MOL     -0.426257
    130 C41        -6.7940    0.6460    3.1360 c3        1 MOL      0.388574
    131 C42        -8.2850    0.6490    2.8050 c3        1 MOL     -0.185970
    132 O20        -6.6560    0.8100    4.5970 oh        1 MOL     -0.588263
    133 H60        -4.2710   -0.0240    3.8580 hn        1 MOL      0.197583
    134 H61        -6.5250   -1.6240    2.9950 h1        1 MOL      0.102757
    135 H62        -6.2700    1.4470    2.6050 h1        1 MOL     -0.032224
    136 H63        -5.7210    0.7760    4.7920 ho        1 MOL      0.377690
    137 H64        -8.6740    1.4970    3.3570 hc        1 MOL      0.056400
    138 H65        -8.6220    0.7430    1.7730 hc        1 MOL      0.056400
    139 H66        -8.7920   -0.1770    3.3080 hc        1 MOL      0.056400
    140 N12        -6.5900   -1.5530    0.4240 n         1 MOL     -0.561515
    141 C43        -6.6410   -1.8030   -1.0280 c3        1 MOL      0.247547
    142 C44        -5.3300   -1.8780   -1.7090 c         1 MOL      0.507865
    143 O21        -4.9350   -1.0750   -2.5390 o         1 MOL     -0.552982
    144 C45        -7.4130   -0.6480   -1.6640 c3        1 MOL     -0.648216
    145 C46        -8.8520   -0.6140   -1.0960 c3        1 MOL      0.473300
    146 C47        -9.6520    0.4290   -1.8670 c3        1 MOL     -0.370861
    147 C48       -11.1030   -0.0750   -1.9990 c3        1 MOL      0.145303
    148 N13       -12.0490    0.8630   -2.6240 n4        1 MOL     -0.121654
    149 H67        -7.2920   -2.0360    0.9640 hn        1 MOL      0.275369
    150 H68        -7.1040   -2.7600   -1.2760 h1        1 MOL      0.050300
    151 H69        -7.4450   -0.8900   -2.7350 hc        1 MOL      0.195294
    152 H70        -6.9790    0.3450   -1.5400 hc        1 MOL      0.195294
    153 H71        -8.8890   -0.3880   -0.0320 hc        1 MOL     -0.075243
    154 H72        -9.3250   -1.5830   -1.2160 hc        1 MOL     -0.075243
    155 H73        -9.3770    0.4560   -2.9180 hc        1 MOL      0.112406
    156 H74        -9.5110    1.3620   -1.3250 hc        1 MOL      0.112406
    157 H75       -11.4860   -0.2440   -0.9920 hx        1 MOL      0.032581
    158 H76       -11.0360   -1.0020   -2.5540 hx        1 MOL      0.032581
    159 H77       -12.8910    0.3230   -2.5470 hn        1 MOL      0.182571
    160 H78       -12.2760    1.6390   -2.0190 hn        1 MOL      0.182571
    161 H79       -11.7530    1.1700   -3.5410 hn        1 MOL      0.182571
    162 N14        -4.5790   -2.9210   -1.3740 n         1 MOL     -0.332697
    163 C49        -3.3620   -3.3860   -2.0060 c3        1 MOL      0.283106
    164 C50        -2.1410   -3.2050   -1.0610 c         1 MOL      0.247100
    165 O22        -1.5290   -2.1730   -1.0200 o         1 MOL     -0.502711
    166 C51        -3.5620   -4.7830   -2.6930 c3        1 MOL      0.350332
    167 C52        -4.3920   -4.5420   -3.9140 c3        1 MOL     -0.198361
    168 C53        -4.6010   -5.8190   -4.8090 c         1 MOL      0.628513
    169 O23        -3.8430   -6.0040   -5.7560 o         1 MOL     -0.588470
    170 O24        -5.2880   -6.7650   -4.4200 o         1 MOL     -0.588470
    171 H80        -4.9670   -3.4360   -0.5910 hn        1 MOL      0.231095
    172 H81        -3.1160   -2.6760   -2.7920 h1        1 MOL      0.097452
    173 H82        -4.1180   -5.4260   -2.0090 hc        1 MOL     -0.082893
    174 H83        -2.5730   -5.1650   -2.8980 hc        1 MOL     -0.082893
    175 H84        -3.9520   -3.6970   -4.4500 hc        1 MOL     -0.027852
    176 H85        -5.3280   -4.2580   -3.4280 hc        1 MOL     -0.027852
    177 N15        -1.7050   -4.2010   -0.2870 n         1 MOL     -0.326222
    178 C54        -2.2650   -5.5110    0.0820 c3        1 MOL     -0.049631
    179 H86        -2.1750   -5.6530    1.1590 h1        1 MOL      0.038246
    180 H87        -3.3170   -5.5510   -0.2030 h1        1 MOL      0.038246
    181 H88        -1.7180   -6.2990   -0.4340 h1        1 MOL      0.038246
    182 H89        -0.8830   -3.9260    0.2370 hn        1 MOL      0.402530
    183 Ca1        -0.5820    0.2860   -0.8150 Ca        1 MOL      1.699056
    184 O25         1.4880   -0.4670   -2.6940 oh        1 MOL     -0.863318
    185 H90         2.3890   -0.5560   -2.3740 ho        1 MOL      0.410960
    186 H91         1.5020    0.3220   -3.2330 ho        1 MOL      0.410960
    187 O26        -1.8550   -0.3900   -3.0640 oh        1 MOL     -0.863318
    188 H92        -2.7480   -0.0700   -3.0420 ho        1 MOL      0.410960
    189 H93        -1.4320    0.1050   -3.7740 ho        1 MOL      0.410960
    190 O27        -3.2160    0.9030   -1.1100 oh        1 MOL     -0.863318
    191 H94        -3.4530    1.7240   -0.6830 ho        1 MOL      0.410960
    192 H95        -3.9220    0.2990   -0.8840 ho        1 MOL      0.410960
@<TRIPOS>BOND
     1    1    2 1   
     2    1    4 1   
     3    1    5 1   
     4    1    6 1   
     5    2    3 2   
     6    2    7 1   
     7    7    8 1   
     8    7   15 1   
     9    8    9 1   
    10    8   11 1   
    11    8   16 1   
    12    9   10 2   
    13    9   19 1   
    14   11   12 1   
    15   11   17 1   
    16   11   18 1   
    17   12   13 1   
    18   12   14 1   
    19   19   20 1   
    20   19   28 1   
    21   20   21 1   
    22   20   23 1   
    23   20   29 1   
    24   21   22 2   
    25   21   41 1   
    26   23   24 1   
    27   23   30 1   
    28   23   31 1   
    29   24   25 1   
    30   24   32 1   
    31   24   33 1   
    32   25   26 1   
    33   25   34 1   
    34   25   35 1   
    35   26   27 1   
    36   26   36 1   
    37   26   37 1   
    38   27   38 1   
    39   27   39 1   
    40   27   40 1   
    41   41   42 1   
    42   41   49 1   
    43   42   43 1   
    44   42   45 1   
    45   42   50 1   
    46   43   44 2   
    47   43   53 1   
    48   45   46 1   
    49   45   51 1   
    50   45   52 1   
    51   46   47 1   
    52   46   48 1   
    53   53   54 1   
    54   53   57 1   
    55   54   55 1   
    56   54   58 1   
    57   54   59 1   
    58   55   56 2   
    59   55   60 1   
    60   60   61 1   
    61   60   68 1   
    62   61   62 1   
    63   61   64 1   
    64   61   69 1   
    65   62   63 2   
    66   62   72 1   
    67   64   65 1   
    68   64   70 1   
    69   64   71 1   
    70   65   66 1   
    71   65   67 1   
    72   72   73 1   
    73   72   76 1   
    74   73   74 1   
    75   73   77 1   
    76   73   78 1   
    77   74   75 2   
    78   74   79 1   
    79   79   80 1   
    80   79   86 1   
    81   80   81 1   
    82   80   83 1   
    83   80   87 1   
    84   81   82 2   
    85   81   93 1   
    86   83   84 1   
    87   83   85 1   
    88   83   88 1   
    89   84   90 1   
    90   84   91 1   
    91   84   92 1   
    92   85   89 1   
    93   93   94 1   
    94   93  101 1   
    95   94   95 1   
    96   94   97 1   
    97   94  102 1   
    98   95   96 2   
    99   95  112 1   
   100   97   98 1   
   101   97   99 1   
   102   97  103 1   
   103   98  100 1   
   104   98  104 1   
   105   98  105 1   
   106   99  106 1   
   107   99  107 1   
   108   99  108 1   
   109  100  109 1   
   110  100  110 1   
   111  100  111 1   
   112  112  113 1   
   113  112  119 1   
   114  113  114 1   
   115  113  116 1   
   116  113  120 1   
   117  114  115 2   
   118  114  126 1   
   119  116  117 1   
   120  116  118 1   
   121  116  121 1   
   122  117  123 1   
   123  117  124 1   
   124  117  125 1   
   125  118  122 1   
   126  126  127 1   
   127  126  133 1   
   128  127  128 1   
   129  127  130 1   
   130  127  134 1   
   131  128  129 2   
   132  128  140 1   
   133  130  131 1   
   134  130  132 1   
   135  130  135 1   
   136  131  137 1   
   137  131  138 1   
   138  131  139 1   
   139  132  136 1   
   140  140  141 1   
   141  140  149 1   
   142  141  142 1   
   143  141  144 1   
   144  141  150 1   
   145  142  143 2   
   146  142  162 1   
   147  144  145 1   
   148  144  151 1   
   149  144  152 1   
   150  145  146 1   
   151  145  153 1   
   152  145  154 1   
   153  146  147 1   
   154  146  155 1   
   155  146  156 1   
   156  147  148 1   
   157  147  157 1   
   158  147  158 1   
   159  148  159 1   
   160  148  160 1   
   161  148  161 1   
   162  162  163 1   
   163  162  171 1   
   164  163  164 1   
   165  163  166 1   
   166  163  172 1   
   167  164  165 2   
   168  164  177 1   
   169  166  167 1   
   170  166  173 1   
   171  166  174 1   
   172  167  168 1   
   173  167  175 1   
   174  167  176 1   
   175  168  169 1   
   176  168  170 1   
   177  177  178 1   
   178  177  182 1   
   179  178  179 1   
   180  178  180 1   
   181  178  181 1   
   182  184  185 1   
   183  184  186 1   
   184  187  188 1   
   185  187  189 1   
   186  190  191 1   
   187  190  192 1   
@<TRIPOS>SUBSTRUCTURE
     1 MOL         1 TEMP              0 ****  ****    0 ROOT
