@<TRIPOS>MOLECULE
MOL
  187   181     1     0     0
SMALL
resp


@<TRIPOS>ATOM
      1 C1          2.0340   -1.6060    4.9210 c3        1 MOL     -0.322042
      2 C2          3.3850   -0.9560    4.5980 c         1 MOL      0.700720
      3 O1          3.4590    0.2600    4.3770 o         1 MOL     -0.599270
      4 H1          1.9650   -1.7840    5.9940 hc        1 MOL      0.075707
      5 H2          1.2280   -0.9420    4.6110 hc        1 MOL      0.075707
      6 H3          1.9500   -2.5540    4.3890 hc        1 MOL      0.075707
      7 N1          4.4370   -1.7670    4.6470 n         1 MOL     -0.608584
      8 C3          5.8750   -1.4510    4.5060 c3        1 MOL      0.390279
      9 C4          6.6590   -1.9900    3.2240 c         1 MOL      0.454041
     10 O2          7.5740   -2.8020    3.4070 o         1 MOL     -0.500312
     11 C5          6.6250   -1.8100    5.7850 c3        1 MOL     -0.210069
     12 C6          7.6980   -0.7860    6.1790 c         1 MOL      0.775637
     13 O3          8.0020   -0.6640    7.3740 o         1 MOL     -0.750990
     14 O4          8.1140   -0.0440    5.2760 o         1 MOL     -0.750990
     15 H4          4.2350   -2.7550    4.6980 hn        1 MOL      0.265824
     16 H5          5.8460   -0.3640    4.4230 h1        1 MOL      0.021250
     17 H6          7.1500   -2.7610    5.8080 hc        1 MOL     -0.004173
     18 H7          5.8470   -1.8200    6.5570 hc        1 MOL     -0.004173
     19 N2          6.1680   -1.5740    2.0200 n         1 MOL     -0.825579
     20 C7          6.7240   -2.0530    0.7390 c3        1 MOL      0.866124
     21 C8          5.6530   -2.5120   -0.2890 c         1 MOL      0.134830
     22 O5          4.4870   -2.5080    0.0390 o         1 MOL     -0.488455
     23 C9          7.5940   -0.9290    0.1350 c3        1 MOL     -0.344573
     24 H8          5.4070   -0.9220    2.0410 hn        1 MOL      0.363592
     25 H9          7.3670   -2.9200    0.8950 h1        1 MOL     -0.108448
     26 H10         7.0230   -0.0320   -0.1040 hc        1 MOL      0.069933
     27 H11         8.4890   -0.7500    0.7220 hc        1 MOL      0.069933
     28 H12         8.0710   -1.2800   -0.7800 hc        1 MOL      0.069933
     29 N3          6.0920   -2.9730   -1.4230 n         1 MOL     -0.252375
     30 C10         5.2070   -3.6380   -2.4190 c3        1 MOL      0.332723
     31 C11         4.5190   -2.5750   -3.2740 c         1 MOL      0.334419
     32 O6          3.4740   -2.8980   -3.8190 o         1 MOL     -0.505359
     33 C12         5.9930   -4.5260   -3.3680 c3        1 MOL     -0.533543
     34 C13         7.4640   -4.1860   -3.7650 c         1 MOL      0.738144
     35 O7          7.6320   -3.3220   -4.7220 o         1 MOL     -0.715063
     36 O8          8.4750   -4.6260   -3.1310 o         1 MOL     -0.715063
     37 H13         7.0860   -2.9770   -1.5700 hn        1 MOL      0.208166
     38 H14         4.4350   -4.1780   -1.8720 h1        1 MOL     -0.015488
     39 H15         5.5380   -4.6460   -4.3430 hc        1 MOL      0.109397
     40 H16         6.0940   -5.4610   -2.8230 hc        1 MOL      0.109397
     41 N4          5.0330   -1.3640   -3.2810 n         1 MOL     -0.181923
     42 C14         4.4090   -0.2740   -3.9950 c3        1 MOL     -0.057111
     43 C15         4.5930    1.0260   -3.2350 c         1 MOL      0.638080
     44 O9          4.9440    1.0550   -2.0020 o         1 MOL     -0.495837
     45 H17         5.8870   -1.1900   -2.7720 hn        1 MOL      0.199698
     46 H18         3.3470   -0.4630   -4.1550 h1        1 MOL      0.064944
     47 H19         4.9420   -0.1330   -4.9340 h1        1 MOL      0.064944
     48 N5          4.2670    2.1490   -3.9100 n         1 MOL     -0.626624
     49 C16         4.5120    3.4850   -3.3510 c3        1 MOL      0.105427
     50 C17         3.6400    3.8240   -2.1910 c         1 MOL      0.549387
     51 O10         2.5470    3.2680   -2.1390 o         1 MOL     -0.484076
     52 C18         4.5090    4.4800   -4.4360 c3        1 MOL     -0.128535
     53 C19         5.6790    4.5950   -5.3910 c         1 MOL      0.676513
     54 N6          5.7190    5.7020   -6.1270 n         1 MOL     -0.861897
     55 O11         6.4700    3.7110   -5.4890 o         1 MOL     -0.522629
     56 H20         3.9540    2.0690   -4.8640 hn        1 MOL      0.334751
     57 H21         5.4770    3.4730   -2.8360 h1        1 MOL      0.029050
     58 H22         4.4020    5.4560   -3.9400 hc        1 MOL      0.047305
     59 H23         3.5820    4.4020   -5.0060 hc        1 MOL      0.047305
     60 H24         5.1010    6.4830   -5.9420 hn        1 MOL      0.377031
     61 H25         6.5150    5.8490   -6.7240 hn        1 MOL      0.377031
     62 N7          3.9420    4.6980   -1.2360 n         1 MOL     -0.419117
     63 C20         3.0100    4.9990   -0.1290 c3        1 MOL     -0.280839
     64 C21         1.9880    6.0820   -0.4640 c         1 MOL      0.571600
     65 O12         1.8190    6.5110   -1.6400 o         1 MOL     -0.503130
     66 H26         4.7920    5.2400   -1.2050 hn        1 MOL      0.292883
     67 H27         3.6820    5.2990    0.6780 h1        1 MOL      0.176025
     68 H28         2.5580    4.0460    0.1340 h1        1 MOL      0.176025
     69 N8          1.2320    6.4760    0.5590 n         1 MOL     -0.504321
     70 C22        -0.0160    7.2220    0.4920 c3        1 MOL     -0.156298
     71 C23        -1.2610    6.2720    0.7580 c         1 MOL      0.702882
     72 O13        -2.3160    6.5370    0.2590 o         1 MOL     -0.598398
     73 C24         0.0280    8.3480    1.4050 c3        1 MOL      0.507602
     74 C25         0.1720    8.1470    2.8940 c3        1 MOL     -0.383566
     75 O14         1.0240    9.2670    1.1170 oh        1 MOL     -0.622198
     76 H29         1.6650    6.3190    1.4490 hn        1 MOL      0.274330
     77 H30        -0.1860    7.5680   -0.5220 h1        1 MOL      0.124545
     78 H31        -0.9220    8.8440    1.2060 h1        1 MOL     -0.002014
     79 H32         1.8260    8.7810    1.3260 ho        1 MOL      0.359969
     80 H33         0.1040    9.0980    3.4120 hc        1 MOL      0.089571
     81 H34        -0.7520    7.6310    3.1970 hc        1 MOL      0.089571
     82 H35         1.0350    7.5340    3.1200 hc        1 MOL      0.089571
     83 N9         -1.0030    5.1380    1.4450 n         1 MOL     -0.374956
     84 C26        -2.1280    4.2090    1.8150 c3        1 MOL      0.023117
     85 C27        -1.6450    2.7670    1.5160 c         1 MOL      0.350348
     86 O15        -0.4190    2.4240    1.4610 o         1 MOL     -0.503839
     87 C28        -2.6060    4.4010    3.2960 c3        1 MOL      0.036041
     88 C29        -1.5450    4.5880    4.3990 c3        1 MOL     -0.054328
     89 C30        -3.5580    5.6200    3.2320 c3        1 MOL     -0.249374
     90 C31        -0.7630    3.3270    4.7840 c3        1 MOL     -0.142070
     91 H36        -0.0750    4.9730    1.8220 hn        1 MOL      0.242289
     92 H37        -3.0250    4.3760    1.2140 h1        1 MOL      0.080164
     93 H38        -3.2690    3.5740    3.5680 hc        1 MOL      0.057445
     94 H39        -2.1030    4.9540    5.2600 hc        1 MOL      0.014731
     95 H40        -0.8570    5.3640    4.0840 hc        1 MOL      0.014731
     96 H41        -4.1890    5.6710    2.3450 hc        1 MOL      0.058798
     97 H42        -4.2980    5.6110    4.0300 hc        1 MOL      0.058798
     98 H43        -3.0650    6.5900    3.3410 hc        1 MOL      0.058798
     99 H44        -1.3540    2.4320    4.5860 hc        1 MOL      0.061715
    100 H45         0.1650    3.3260    4.2170 hc        1 MOL      0.061715
    101 H46        -0.4190    3.4160    5.8170 hc        1 MOL      0.061715
    102 N10        -2.5760    1.9400    1.2470 n         1 MOL     -0.359132
    103 C32        -2.3610    0.6890    0.5550 c3        1 MOL      0.287352
    104 C33        -3.5820    0.2200   -0.2750 c         1 MOL      0.554223
    105 O16        -4.0670   -0.9500   -0.1560 o         1 MOL     -0.557541
    106 C34        -1.8150   -0.4720    1.4570 c3        1 MOL     -0.156407
    107 C35        -1.1530   -1.5980    0.6450 c         1 MOL      0.698764
    108 O17        -0.6750   -2.5730    1.3300 o         1 MOL     -0.696301
    109 O18        -1.1440   -1.5710   -0.6140 o         1 MOL     -0.696301
    110 H47        -3.5270    2.2510    1.3570 hn        1 MOL      0.234201
    111 H48        -1.5870    0.8370   -0.1990 h1        1 MOL      0.021308
    112 H49        -2.6870   -0.7480    2.0500 hc        1 MOL      0.037288
    113 H50        -0.9970   -0.0600    2.0580 hc        1 MOL      0.037288
    114 N11        -4.2370    1.0490   -1.0880 n         1 MOL     -0.634451
    115 C36        -5.4840    0.6670   -1.7910 c3        1 MOL      0.451297
    116 C37        -6.5330   -0.0410   -0.8680 c         1 MOL      0.250778
    117 O19        -6.8230    0.6130    0.1730 o         1 MOL     -0.518760
    118 C38        -6.0540    1.9750   -2.4190 c3        1 MOL     -0.455777
    119 C39        -7.3780    1.6540   -3.0880 ca        1 MOL      0.151964
    120 C40        -7.3700    1.1110   -4.4300 ca        1 MOL     -0.194509
    121 C41        -8.5880    1.7000   -2.3760 ca        1 MOL     -0.194509
    122 C42        -8.6010    0.8500   -5.0890 ca        1 MOL     -0.107290
    123 C43        -9.7860    1.3740   -3.0640 ca        1 MOL     -0.107290
    124 C44        -9.8300    0.9050   -4.4330 ca        1 MOL     -0.143095
    125 H51        -3.7880    1.9450   -1.1480 hn        1 MOL      0.301137
    126 H52        -5.3770   -0.0410   -2.6020 h1        1 MOL     -0.039330
    127 H53        -5.2540    2.4430   -3.0000 hc        1 MOL      0.157529
    128 H54        -6.2660    2.7180   -1.6510 hc        1 MOL      0.157529
    129 H55        -6.4490    0.9730   -4.9670 ha        1 MOL      0.141403
    130 H56        -8.7210    2.0590   -1.3640 ha        1 MOL      0.141403
    131 H57        -8.5850    0.4740   -6.0970 ha        1 MOL      0.104180
    132 H58       -10.7090    1.3940   -2.5090 ha        1 MOL      0.104180
    133 H59       -10.7580    0.6130   -4.9040 ha        1 MOL      0.121234
    134 N12        -7.0780   -1.2320   -1.2550 n         1 MOL      0.067749
    135 C45        -8.0780   -1.8610   -0.4680 c3        1 MOL      0.103436
    136 C46        -7.6300   -2.2480    1.0020 c         1 MOL      0.086730
    137 O20        -8.5070   -2.5240    1.8340 o         1 MOL     -0.502432
    138 C47        -8.5050   -3.0980   -1.2970 c3        1 MOL     -0.020242
    139 C48        -8.1570   -2.7230   -2.7390 c3        1 MOL     -0.103259
    140 C49        -6.9030   -1.9020   -2.5510 c3        1 MOL     -0.025764
    141 H60        -8.9250   -1.1760   -0.4440 h1        1 MOL      0.058173
    142 H61        -7.9480   -3.9910   -1.0320 hc        1 MOL      0.035195
    143 H62        -9.5750   -3.2650   -1.2280 hc        1 MOL      0.035195
    144 H63        -7.9840   -3.6390   -3.3000 hc        1 MOL      0.034996
    145 H64        -8.9390   -2.0860   -3.1480 hc        1 MOL      0.034996
    146 H65        -6.0850   -2.6160   -2.5480 h1        1 MOL      0.047797
    147 H66        -6.7970   -1.1850   -3.3560 h1        1 MOL      0.047797
    148 N13        -6.3890   -2.3370    1.3030 n         1 MOL      0.146048
    149 C50        -5.9940   -3.0640    2.5140 c3        1 MOL     -0.202685
    150 C51        -5.8460   -2.1960    3.7420 c         1 MOL      0.460457
    151 O21        -5.8840   -2.7150    4.8470 o         1 MOL     -0.527976
    152 C52        -4.5410   -3.5980    2.2400 c3        1 MOL      0.131420
    153 C53        -4.4530   -4.8500    1.4200 c3        1 MOL     -0.043666
    154 C54        -2.9690   -5.1260    0.9940 c         1 MOL      0.643307
    155 O22        -2.2650   -5.9910    1.6440 o         1 MOL     -0.728569
    156 O23        -2.5340   -4.6150   -0.0930 o         1 MOL     -0.728569
    157 H67        -5.7150   -2.1240    0.5740 hn        1 MOL      0.081202
    158 H68        -6.6400   -3.8910    2.8100 h1        1 MOL      0.143555
    159 H69        -3.9440   -3.6620    3.1520 hc        1 MOL      0.001452
    160 H70        -4.0830   -2.7750    1.6910 hc        1 MOL      0.001452
    161 H71        -5.0460   -4.6770    0.5190 hc        1 MOL     -0.004928
    162 H72        -4.9250   -5.6720    1.9570 hc        1 MOL     -0.004928
    163 N14        -5.7940   -0.8240    3.5850 n         1 MOL     -0.226708
    164 C55        -5.7070    0.1380    4.7040 c3        1 MOL     -0.211265
    165 H73        -5.2940   -0.3600    5.5810 h1        1 MOL      0.091017
    166 H74        -5.0600    0.9690    4.4210 h1        1 MOL      0.091017
    167 H75        -6.7030    0.5150    4.9370 h1        1 MOL      0.091017
    168 H76        -5.7850   -0.4170    2.6680 hn        1 MOL      0.219685
    169 Ca1        -0.0780   -4.1210   -0.7260 Ca        1 MOL      1.748902
    170 O24         0.0210   -6.3170    0.6710 oh        1 MOL     -0.838185
    171 H77        -0.8840   -6.3420    0.9830 ho        1 MOL      0.407072
    172 H78         0.5030   -6.8520    1.2940 ho        1 MOL      0.407072
    173 O25         1.8410   -2.0990   -1.6890 oh        1 MOL     -0.838185
    174 H79         1.8000   -1.1540   -1.5550 ho        1 MOL      0.407072
    175 H80         2.4210   -2.2060   -2.4410 ho        1 MOL      0.407072
    176 O26        -0.6230   -3.1600   -3.3100 oh        1 MOL     -0.838185
    177 H81        -0.7270   -3.6940   -4.1040 ho        1 MOL      0.407072
    178 H82        -0.5710   -2.2630   -3.6320 ho        1 MOL      0.407072
    179 O27        -0.9070   -6.0510   -2.4570 oh        1 MOL     -0.838185
    180 H83        -1.1810   -6.7920   -1.9280 ho        1 MOL      0.407072
    181 H84        -1.3840   -6.1640   -3.2870 ho        1 MOL      0.407072
    182 O28         2.2510   -4.1210    0.9380 oh        1 MOL     -0.838185
    183 H85         2.6210   -4.8730    1.4020 ho        1 MOL      0.407072
    184 H86         3.0110   -3.6570    0.5910 ho        1 MOL      0.407072
    185 O29         1.7870   -5.2080   -2.2900 oh        1 MOL     -0.838185
    186 H87         2.3360   -5.0180   -3.0410 ho        1 MOL      0.407072
    187 H88         2.0000   -6.1150   -2.0550 ho        1 MOL      0.407072
@<TRIPOS>BOND
     1    1    2 1   
     2    1    4 1   
     3    1    5 1   
     4    1    6 1   
     5    2    3 2   
     6    2    7 1   
     7    7    8 1   
     8    7   15 1   
     9    8    9 1   
    10    8   11 1   
    11    8   16 1   
    12    9   10 2   
    13    9   19 1   
    14   11   12 1   
    15   11   17 1   
    16   11   18 1   
    17   12   13 1   
    18   12   14 1   
    19   19   20 1   
    20   19   24 1   
    21   20   21 1   
    22   20   23 1   
    23   20   25 1   
    24   21   22 2   
    25   21   29 1   
    26   23   26 1   
    27   23   27 1   
    28   23   28 1   
    29   29   30 1   
    30   29   37 1   
    31   30   31 1   
    32   30   33 1   
    33   30   38 1   
    34   31   32 2   
    35   31   41 1   
    36   33   34 1   
    37   33   39 1   
    38   33   40 1   
    39   34   35 1   
    40   34   36 1   
    41   41   42 1   
    42   41   45 1   
    43   42   43 1   
    44   42   46 1   
    45   42   47 1   
    46   43   44 2   
    47   43   48 1   
    48   48   49 1   
    49   48   56 1   
    50   49   50 1   
    51   49   52 1   
    52   49   57 1   
    53   50   51 2   
    54   50   62 1   
    55   52   53 1   
    56   52   58 1   
    57   52   59 1   
    58   53   54 1   
    59   53   55 2   
    60   54   60 1   
    61   54   61 1   
    62   62   63 1   
    63   62   66 1   
    64   63   64 1   
    65   63   67 1   
    66   63   68 1   
    67   64   65 2   
    68   64   69 1   
    69   69   70 1   
    70   69   76 1   
    71   70   71 1   
    72   70   73 1   
    73   70   77 1   
    74   71   72 2   
    75   71   83 1   
    76   73   74 1   
    77   73   75 1   
    78   73   78 1   
    79   74   80 1   
    80   74   81 1   
    81   74   82 1   
    82   75   79 1   
    83   83   84 1   
    84   83   91 1   
    85   84   85 1   
    86   84   87 1   
    87   84   92 1   
    88   85   86 2   
    89   85  102 1   
    90   87   88 1   
    91   87   89 1   
    92   87   93 1   
    93   88   90 1   
    94   88   94 1   
    95   88   95 1   
    96   89   96 1   
    97   89   97 1   
    98   89   98 1   
    99   90   99 1   
   100   90  100 1   
   101   90  101 1   
   102  102  103 1   
   103  102  110 1   
   104  103  104 1   
   105  103  106 1   
   106  103  111 1   
   107  104  105 2   
   108  104  114 1   
   109  106  107 1   
   110  106  112 1   
   111  106  113 1   
   112  107  108 1   
   113  107  109 1   
   114  114  115 1   
   115  114  125 1   
   116  115  116 1   
   117  115  118 1   
   118  115  126 1   
   119  116  117 2   
   120  116  134 1   
   121  118  119 1   
   122  118  127 1   
   123  118  128 1   
   124  119  120 ar  
   125  119  121 ar  
   126  120  122 ar  
   127  120  129 1   
   128  121  123 ar  
   129  121  130 1   
   130  122  124 ar  
   131  122  131 1   
   132  123  124 ar  
   133  123  132 1   
   134  124  133 1   
   135  134  135 1   
   136  134  140 1   
   137  135  136 1   
   138  135  138 1   
   139  135  141 1   
   140  136  137 2   
   141  136  148 1   
   142  138  139 1   
   143  138  142 1   
   144  138  143 1   
   145  139  140 1   
   146  139  144 1   
   147  139  145 1   
   148  140  146 1   
   149  140  147 1   
   150  148  149 1   
   151  148  157 1   
   152  149  150 1   
   153  149  152 1   
   154  149  158 1   
   155  150  151 2   
   156  150  163 1   
   157  152  153 1   
   158  152  159 1   
   159  152  160 1   
   160  153  154 1   
   161  153  161 1   
   162  153  162 1   
   163  154  155 1   
   164  154  156 1   
   165  163  164 1   
   166  163  168 1   
   167  164  165 1   
   168  164  166 1   
   169  164  167 1   
   170  170  171 1   
   171  170  172 1   
   172  173  174 1   
   173  173  175 1   
   174  176  177 1   
   175  176  178 1   
   176  179  180 1   
   177  179  181 1   
   178  182  183 1   
   179  182  184 1   
   180  185  186 1   
   181  185  187 1   
@<TRIPOS>SUBSTRUCTURE
     1 MOL         1 TEMP              0 ****  ****    0 ROOT
