@<TRIPOS>MOLECULE
MOL
  192   187     1     0     0
SMALL
resp


@<TRIPOS>ATOM
      1 C1          9.5330    0.5000    1.4710 c3        1 MOL     -0.498330
      2 C2          8.2760    0.0290    0.6770 c         1 MOL      0.721459
      3 O1          7.2220   -0.0560    1.2590 o         1 MOL     -0.651641
      4 H1          9.2180    1.0810    2.3370 hc        1 MOL      0.125196
      5 H2         10.0990   -0.3700    1.8040 hc        1 MOL      0.125196
      6 H3         10.1600    1.1180    0.8270 hc        1 MOL      0.125196
      7 N1          8.3940   -0.1230   -0.6300 n         1 MOL     -0.432303
      8 C3          7.3170   -0.4690   -1.5380 c3        1 MOL      0.118943
      9 C4          6.6330   -1.8530   -1.2980 c         1 MOL      0.637551
     10 O2          6.1720   -2.4770   -2.2070 o         1 MOL     -0.474328
     11 C5          7.9110   -0.2880   -2.9420 c3        1 MOL     -0.113576
     12 C6          9.2090   -0.9460   -3.2680 c         1 MOL      0.609641
     13 O3         10.2190   -0.7480   -2.6030 o         1 MOL     -0.620614
     14 O4          9.1660   -1.8760   -4.1740 o         1 MOL     -0.620614
     15 H4          9.3000   -0.0430   -1.0560 hn        1 MOL      0.207476
     16 H5          6.5100    0.2570   -1.3820 h1        1 MOL      0.009252
     17 H6          7.9840    0.7960   -3.0770 hc        1 MOL      0.039953
     18 H7          7.2000   -0.6840   -3.6750 hc        1 MOL      0.039953
     19 N2          6.7030   -2.3110   -0.0220 n         1 MOL     -0.588281
     20 C7          6.1780   -3.5590    0.4890 c3        1 MOL      0.297799
     21 C8          4.6950   -3.8390    0.2080 c         1 MOL      0.394945
     22 O5          4.3670   -4.9880   -0.0740 o         1 MOL     -0.555736
     23 C9          6.3480   -3.6830    2.0260 c3        1 MOL     -0.297545
     24 C10         7.8380   -3.9210    2.4270 c3        1 MOL      0.092316
     25 C11         8.0800   -3.9180    3.9070 c3        1 MOL      0.169684
     26 C12         9.5830   -3.9150    4.2100 c3        1 MOL     -0.125184
     27 N3          9.8470   -3.9410    5.6400 n4        1 MOL     -0.083182
     28 H8          7.0290   -1.6410    0.6670 hn        1 MOL      0.252391
     29 H9          6.7150   -4.4220    0.0830 h1        1 MOL      0.037774
     30 H10         5.6580   -4.4420    2.3860 hc        1 MOL      0.085675
     31 H11         6.1650   -2.6840    2.4310 hc        1 MOL      0.085675
     32 H12         8.5080   -3.1790    1.9830 hc        1 MOL     -0.001463
     33 H13         8.2360   -4.8620    2.0520 hc        1 MOL     -0.001463
     34 H14         7.6430   -4.8110    4.3340 hc        1 MOL     -0.025505
     35 H15         7.5350   -3.1270    4.4130 hc        1 MOL     -0.025505
     36 H16         9.9090   -2.9560    3.8020 hx        1 MOL      0.095149
     37 H17         9.9440   -4.8310    3.7500 hx        1 MOL      0.095149
     38 H18         9.3420   -4.7040    6.0800 hn        1 MOL      0.215442
     39 H19        10.8190   -4.2010    5.7900 hn        1 MOL      0.215442
     40 H20         9.7320   -3.1060    6.1930 hn        1 MOL      0.215442
     41 N4          3.7570   -2.9100    0.3510 n         1 MOL     -0.250028
     42 C13         3.8130   -1.5610    1.0000 c3        1 MOL     -0.115899
     43 C14         3.8770   -0.4450   -0.0750 c         1 MOL     -0.040997
     44 O6          3.6660   -0.6070   -1.2670 o         1 MOL     -0.324355
     45 C15         2.5840   -1.4150    1.9090 c3        1 MOL     -0.135716
     46 C16         1.2200   -1.6780    1.2800 c         1 MOL      0.676641
     47 O7          0.9920   -1.1510    0.1190 o         1 MOL     -0.673240
     48 O8          0.3150   -2.2200    1.9420 o         1 MOL     -0.673240
     49 H21         2.8740   -3.3520    0.1250 hn        1 MOL      0.307164
     50 H22         4.6900   -1.5000    1.6350 h1        1 MOL      0.156472
     51 H23         2.5530   -0.4160    2.3320 hc        1 MOL      0.041537
     52 H24         2.7770   -2.0320    2.7860 hc        1 MOL      0.041537
     53 N5          4.2040    0.7470    0.4170 n         1 MOL     -0.011305
     54 C17         4.2640    1.9380   -0.4000 c3        1 MOL     -0.154867
     55 C18         2.9350    2.6100   -0.7760 c         1 MOL      0.648333
     56 O9          1.8660    2.0850   -0.4910 o         1 MOL     -0.512328
     57 H25         4.3310    0.8230    1.4190 hn        1 MOL      0.232035
     58 H26         4.7480    1.6940   -1.3520 h1        1 MOL      0.076553
     59 H27         4.8030    2.6650    0.2070 h1        1 MOL      0.076553
     60 N6          3.1050    3.6740   -1.5300 n         1 MOL     -0.499588
     61 C19         2.0400    4.5070   -2.1430 c3        1 MOL      0.284387
     62 C20         2.3620    6.0050   -2.0940 c         1 MOL      0.487087
     63 O10         3.5290    6.3410   -2.0120 o         1 MOL     -0.537879
     64 C21         1.9500    4.0110   -3.6050 c3        1 MOL     -0.210840
     65 C22         1.3400    2.6170   -3.6670 c         1 MOL      0.623089
     66 O11         0.3170    2.2560   -3.0630 o         1 MOL     -0.640626
     67 O12         2.0210    1.8260   -4.3650 o         1 MOL     -0.640626
     68 H28         4.0280    4.0540   -1.6480 hn        1 MOL      0.273509
     69 H29         1.0990    4.3240   -1.6300 h1        1 MOL      0.002266
     70 H30         2.9050    4.0930   -4.1360 hc        1 MOL      0.050332
     71 H31         1.2670    4.7440   -4.0470 hc        1 MOL      0.050332
     72 N7          1.4230    6.9710   -2.1670 n         1 MOL     -0.488336
     73 C23        -0.0270    6.6930   -2.3280 c3        1 MOL      0.039120
     74 C24        -0.8310    6.3980   -1.0910 c         1 MOL      0.509883
     75 O13        -0.4960    6.6100    0.1010 o         1 MOL     -0.500259
     76 H32         1.7820    7.9130   -2.2080 hn        1 MOL      0.328270
     77 H33        -0.1580    5.9150   -3.0870 h1        1 MOL      0.051569
     78 H34        -0.4970    7.5550   -2.7950 h1        1 MOL      0.051569
     79 N8         -1.9170    5.6300   -1.2540 n         1 MOL     -0.481018
     80 C25        -2.6390    4.9430   -0.1780 c3        1 MOL      0.002949
     81 C26        -1.7500    3.8630    0.4340 c         1 MOL      0.669696
     82 O14        -1.0250    3.1720   -0.3420 o         1 MOL     -0.751515
     83 C27        -3.9270    4.3810   -0.7240 c3        1 MOL      0.426731
     84 C28        -4.9390    5.4510   -1.0740 c3        1 MOL     -0.310991
     85 O15        -4.5400    3.5550    0.2530 oh        1 MOL     -0.692362
     86 H35        -2.0760    5.2930   -2.1890 hn        1 MOL      0.246424
     87 H36        -2.9320    5.7100    0.5370 h1        1 MOL      0.070913
     88 H37        -3.7450    3.7240   -1.5770 h1        1 MOL      0.038070
     89 H38        -5.2450    4.0370    0.6830 ho        1 MOL      0.373811
     90 H39        -5.8930    5.0030   -1.3740 hc        1 MOL      0.082167
     91 H40        -4.9670    6.1530   -0.2470 hc        1 MOL      0.082167
     92 H41        -4.6180    6.0880   -1.9010 hc        1 MOL      0.082167
     93 N9         -1.6250    3.8750    1.7730 n         1 MOL     -0.429269
     94 C29        -0.7840    3.0340    2.6160 c3        1 MOL     -0.005705
     95 C30        -1.2190    1.5720    2.3270 c         1 MOL      0.781768
     96 O16        -0.6670    0.9310    1.4020 o         1 MOL     -0.597934
     97 C31         0.6880    3.3740    2.4260 c3        1 MOL      0.030539
     98 C32         1.1220    4.8320    2.6790 c3        1 MOL     -0.020273
     99 C33         1.6460    2.3770    3.0490 c3        1 MOL     -0.509021
    100 C34         2.4110    5.2880    1.9070 c3        1 MOL     -0.014529
    101 H42        -2.3500    4.3730    2.2800 hn        1 MOL      0.252819
    102 H43        -1.0000    3.3860    3.6270 h1        1 MOL      0.047888
    103 H44         0.8490    3.2490    1.3510 hc        1 MOL      0.187078
    104 H45         1.3850    5.0270    3.7260 hc        1 MOL      0.010245
    105 H46         0.3350    5.5470    2.4060 hc        1 MOL      0.010245
    106 H47         1.2770    2.2550    4.0710 hc        1 MOL      0.123628
    107 H48         1.6040    1.4420    2.4970 hc        1 MOL      0.123628
    108 H49         2.6670    2.7410    3.1260 hc        1 MOL      0.123628
    109 H50         2.2190    5.5860    0.8780 hc        1 MOL     -0.004472
    110 H51         2.8570    6.1490    2.4190 hc        1 MOL     -0.004472
    111 H52         3.1240    4.4690    1.9150 hc        1 MOL     -0.004472
    112 N10        -2.2450    1.1080    3.0260 n         1 MOL     -0.625415
    113 C35        -2.7270   -0.2690    2.9390 c3        1 MOL     -0.013333
    114 C36        -4.2550   -0.4650    2.9570 c         1 MOL      0.563210
    115 O17        -4.7730   -1.5170    3.2500 o         1 MOL     -0.582666
    116 C37        -2.1340   -1.1010    4.0420 c3        1 MOL      0.369032
    117 C38        -2.4410   -0.5370    5.3970 c3        1 MOL     -0.184633
    118 O18        -0.7210   -1.1500    4.0620 oh        1 MOL     -0.629784
    119 H53        -2.6990    1.6610    3.7450 hn        1 MOL      0.302118
    120 H54        -2.4580   -0.6390    1.9580 h1        1 MOL      0.040672
    121 H55        -2.4930   -2.1290    3.9870 h1        1 MOL      0.015246
    122 H56        -0.4350   -1.4770    3.2010 ho        1 MOL      0.415005
    123 H57        -3.5120   -0.5030    5.5930 hc        1 MOL      0.037947
    124 H58        -1.9760   -1.1700    6.1510 hc        1 MOL      0.037947
    125 H59        -2.0430    0.4590    5.6000 hc        1 MOL      0.037947
    126 N11        -4.9660    0.5440    2.5610 n         1 MOL     -0.270818
    127 C39        -6.4440    0.4600    2.4060 c3        1 MOL      0.008110
    128 C40        -6.9230   -0.3780    1.1740 c         1 MOL      0.503665
    129 O19        -7.5700    0.1550    0.2550 o         1 MOL     -0.521970
    130 C41        -7.0600    1.8920    2.5460 c3        1 MOL      0.429466
    131 C42        -8.5610    1.8760    2.6150 c3        1 MOL     -0.624918
    132 O20        -6.6470    2.6110    3.6840 oh        1 MOL     -0.672062
    133 H60        -4.5130    1.3130    2.0950 hn        1 MOL      0.199242
    134 H61        -6.8970   -0.1010    3.2270 h1        1 MOL      0.099027
    135 H62        -6.7860    2.4990    1.6760 h1        1 MOL     -0.000188
    136 H63        -7.2560    3.3470    3.7590 ho        1 MOL      0.421476
    137 H64        -8.8510    2.8220    2.1600 hc        1 MOL      0.160045
    138 H65        -8.9780    1.0760    2.0070 hc        1 MOL      0.160045
    139 H66        -8.8900    1.8270    3.6570 hc        1 MOL      0.160045
    140 N12        -6.6990   -1.7190    1.2030 n         1 MOL     -0.708594
    141 C43        -6.5710   -2.6180    0.0500 c3        1 MOL      0.406276
    142 C44        -5.2160   -2.3230   -0.5830 c         1 MOL      0.357107
    143 O21        -4.7130   -1.2330   -0.5000 o         1 MOL     -0.439748
    144 C45        -7.8130   -2.5190   -0.8740 c3        1 MOL     -0.086277
    145 C46        -9.0670   -3.0070   -0.1420 c3        1 MOL     -0.510866
    146 C47       -10.1940   -3.2110   -1.0550 c3        1 MOL      0.302958
    147 C48       -11.5030   -3.2600   -0.3640 c3        1 MOL      0.061325
    148 N13       -12.5900   -3.3290   -1.3380 n4        1 MOL     -0.231324
    149 H67        -6.3850   -2.0520    2.1040 hn        1 MOL      0.343580
    150 H68        -6.5130   -3.6780    0.3070 h1        1 MOL      0.023464
    151 H69        -7.5650   -3.2610   -1.6290 hc        1 MOL      0.069185
    152 H70        -7.9340   -1.5530   -1.3690 hc        1 MOL      0.069185
    153 H71        -9.3090   -2.1790    0.5320 hc        1 MOL      0.150663
    154 H72        -8.8110   -3.9070    0.4390 hc        1 MOL      0.150663
    155 H73       -10.1030   -4.1580   -1.5920 hc        1 MOL     -0.033430
    156 H74       -10.1770   -2.4130   -1.7880 hc        1 MOL     -0.033430
    157 H75       -11.5390   -2.3900    0.2990 hx        1 MOL      0.050617
    158 H76       -11.5930   -4.1330    0.2740 hx        1 MOL      0.050617
    159 H77       -13.4470   -3.3870   -0.8060 hn        1 MOL      0.235122
    160 H78       -12.6270   -2.4590   -1.8430 hn        1 MOL      0.235122
    161 H79       -12.3780   -4.0830   -1.9850 hn        1 MOL      0.235122
    162 N14        -4.6250   -3.2630   -1.3210 n         1 MOL     -0.400353
    163 C49        -3.3290   -3.1310   -2.0260 c3        1 MOL      0.150972
    164 C50        -2.1380   -2.7360   -1.0730 c         1 MOL      0.257166
    165 O22        -1.3080   -1.8740   -1.3300 o         1 MOL     -0.443176
    166 C51        -2.9260   -4.4550   -2.7170 c3        1 MOL     -0.320263
    167 C52        -3.8530   -4.7700   -3.9240 c3        1 MOL     -0.222078
    168 C53        -3.7210   -6.1790   -4.2860 c         1 MOL      0.704924
    169 O23        -3.6030   -7.0450   -3.3760 o         1 MOL     -0.650353
    170 O24        -3.7500   -6.4870   -5.4970 o         1 MOL     -0.650353
    171 H80        -5.1470   -4.1290   -1.2720 hn        1 MOL      0.295895
    172 H81        -3.3950   -2.4050   -2.8410 h1        1 MOL      0.027205
    173 H82        -2.8260   -5.2130   -1.9430 hc        1 MOL      0.174532
    174 H83        -1.9460   -4.2470   -3.1340 hc        1 MOL      0.174532
    175 H84        -3.5670   -4.1790   -4.8040 hc        1 MOL      0.058714
    176 H85        -4.8710   -4.5190   -3.6080 hc        1 MOL      0.058714
    177 N15        -2.0390   -3.3350    0.1560 n         1 MOL     -0.162303
    178 C54        -2.5810   -4.5940    0.7080 c3        1 MOL      0.004382
    179 H86        -1.9900   -5.4350    0.3420 h1        1 MOL      0.017617
    180 H87        -2.5350   -4.5640    1.7960 h1        1 MOL      0.017617
    181 H88        -3.6170   -4.7150    0.3910 h1        1 MOL      0.017617
    182 H89        -1.4500   -2.7550    0.7320 hn        1 MOL      0.242569
    183 Ca1        -0.2570    0.6200   -1.1760 Ca        1 MOL      1.833908
    184 O25         1.3350   -0.8520   -2.8070 oh        1 MOL     -0.912079
    185 H90         2.2540   -0.9430   -2.5600 ho        1 MOL      0.430148
    186 H91         1.2270   -1.4330   -3.5520 ho        1 MOL      0.430148
    187 O26        -2.9080    0.8580   -0.7880 oh        1 MOL     -0.912079
    188 H92        -3.5380    1.5420   -1.0020 ho        1 MOL      0.430148
    189 H93        -3.4380    0.0600   -0.6950 ho        1 MOL      0.430148
    190 O27        -1.4430    0.1600   -3.7840 oh        1 MOL     -0.912079
    191 H94        -2.3050   -0.0950   -4.1120 ho        1 MOL      0.430148
    192 H95        -0.8840    0.1990   -4.5630 ho        1 MOL      0.430148
@<TRIPOS>BOND
     1    1    2 1   
     2    1    4 1   
     3    1    5 1   
     4    1    6 1   
     5    2    3 2   
     6    2    7 1   
     7    7    8 1   
     8    7   15 1   
     9    8    9 1   
    10    8   11 1   
    11    8   16 1   
    12    9   10 2   
    13    9   19 1   
    14   11   12 1   
    15   11   17 1   
    16   11   18 1   
    17   12   13 1   
    18   12   14 1   
    19   19   20 1   
    20   19   28 1   
    21   20   21 1   
    22   20   23 1   
    23   20   29 1   
    24   21   22 2   
    25   21   41 1   
    26   23   24 1   
    27   23   30 1   
    28   23   31 1   
    29   24   25 1   
    30   24   32 1   
    31   24   33 1   
    32   25   26 1   
    33   25   34 1   
    34   25   35 1   
    35   26   27 1   
    36   26   36 1   
    37   26   37 1   
    38   27   38 1   
    39   27   39 1   
    40   27   40 1   
    41   41   42 1   
    42   41   49 1   
    43   42   43 1   
    44   42   45 1   
    45   42   50 1   
    46   43   44 2   
    47   43   53 1   
    48   45   46 1   
    49   45   51 1   
    50   45   52 1   
    51   46   47 1   
    52   46   48 1   
    53   53   54 1   
    54   53   57 1   
    55   54   55 1   
    56   54   58 1   
    57   54   59 1   
    58   55   56 2   
    59   55   60 1   
    60   60   61 1   
    61   60   68 1   
    62   61   62 1   
    63   61   64 1   
    64   61   69 1   
    65   62   63 2   
    66   62   72 1   
    67   64   65 1   
    68   64   70 1   
    69   64   71 1   
    70   65   66 1   
    71   65   67 1   
    72   72   73 1   
    73   72   76 1   
    74   73   74 1   
    75   73   77 1   
    76   73   78 1   
    77   74   75 2   
    78   74   79 1   
    79   79   80 1   
    80   79   86 1   
    81   80   81 1   
    82   80   83 1   
    83   80   87 1   
    84   81   82 2   
    85   81   93 1   
    86   83   84 1   
    87   83   85 1   
    88   83   88 1   
    89   84   90 1   
    90   84   91 1   
    91   84   92 1   
    92   85   89 1   
    93   93   94 1   
    94   93  101 1   
    95   94   95 1   
    96   94   97 1   
    97   94  102 1   
    98   95   96 2   
    99   95  112 1   
   100   97   98 1   
   101   97   99 1   
   102   97  103 1   
   103   98  100 1   
   104   98  104 1   
   105   98  105 1   
   106   99  106 1   
   107   99  107 1   
   108   99  108 1   
   109  100  109 1   
   110  100  110 1   
   111  100  111 1   
   112  112  113 1   
   113  112  119 1   
   114  113  114 1   
   115  113  116 1   
   116  113  120 1   
   117  114  115 2   
   118  114  126 1   
   119  116  117 1   
   120  116  118 1   
   121  116  121 1   
   122  117  123 1   
   123  117  124 1   
   124  117  125 1   
   125  118  122 1   
   126  126  127 1   
   127  126  133 1   
   128  127  128 1   
   129  127  130 1   
   130  127  134 1   
   131  128  129 2   
   132  128  140 1   
   133  130  131 1   
   134  130  132 1   
   135  130  135 1   
   136  131  137 1   
   137  131  138 1   
   138  131  139 1   
   139  132  136 1   
   140  140  141 1   
   141  140  149 1   
   142  141  142 1   
   143  141  144 1   
   144  141  150 1   
   145  142  143 2   
   146  142  162 1   
   147  144  145 1   
   148  144  151 1   
   149  144  152 1   
   150  145  146 1   
   151  145  153 1   
   152  145  154 1   
   153  146  147 1   
   154  146  155 1   
   155  146  156 1   
   156  147  148 1   
   157  147  157 1   
   158  147  158 1   
   159  148  159 1   
   160  148  160 1   
   161  148  161 1   
   162  162  163 1   
   163  162  171 1   
   164  163  164 1   
   165  163  166 1   
   166  163  172 1   
   167  164  165 2   
   168  164  177 1   
   169  166  167 1   
   170  166  173 1   
   171  166  174 1   
   172  167  168 1   
   173  167  175 1   
   174  167  176 1   
   175  168  169 1   
   176  168  170 1   
   177  177  178 1   
   178  177  182 1   
   179  178  179 1   
   180  178  180 1   
   181  178  181 1   
   182  184  185 1   
   183  184  186 1   
   184  187  188 1   
   185  187  189 1   
   186  190  191 1   
   187  190  192 1   
@<TRIPOS>SUBSTRUCTURE
     1 MOL         1 TEMP              0 ****  ****    0 ROOT
