@<TRIPOS>MOLECULE
MOL
  181   177     1     0     0
SMALL
resp


@<TRIPOS>ATOM
      1 C1          2.5770   -1.8650    4.8010 c3        1 MOL     -0.340508
      2 C2          4.0110   -1.3040    4.4250 c         1 MOL      0.628447
      3 O1          4.1600   -0.1210    4.1190 o         1 MOL     -0.577323
      4 H1          2.6840   -2.8180    5.3180 hc        1 MOL      0.086654
      5 H2          2.0670   -1.1540    5.4510 hc        1 MOL      0.086654
      6 H3          1.9930   -2.0100    3.8910 hc        1 MOL      0.086654
      7 N1          5.0070   -2.2320    4.2510 n         1 MOL     -0.516521
      8 C3          6.3680   -1.8580    3.8660 c3        1 MOL      0.095076
      9 C4          6.5860   -1.6800    2.3270 c         1 MOL      0.575313
     10 O2          5.8470   -2.2740    1.5230 o         1 MOL     -0.466937
     11 C5          7.2620   -3.0280    4.3670 c3        1 MOL     -0.088149
     12 C6          6.9470   -4.3770    3.7860 c         1 MOL      0.675715
     13 O3          5.7820   -4.8480    3.8940 o         1 MOL     -0.700813
     14 O4          7.9030   -4.9830    3.2570 o         1 MOL     -0.700813
     15 H4          4.7780   -3.2120    4.2800 hn        1 MOL      0.299461
     16 H5          6.7070   -0.9670    4.4050 h1        1 MOL      0.009783
     17 H6          7.0500   -3.1310    5.4340 hc        1 MOL     -0.015814
     18 H7          8.3090   -2.7620    4.2160 hc        1 MOL     -0.015814
     19 N2          7.6600   -0.9920    1.9270 n         1 MOL     -0.606981
     20 C7          7.9630   -0.6670    0.4920 c3        1 MOL      0.265240
     21 C8          6.7080   -0.0330   -0.2680 c         1 MOL      0.346090
     22 O5          5.9370    0.8180    0.2920 o         1 MOL     -0.510376
     23 C9          9.2720    0.1030    0.3570 c3        1 MOL     -0.270648
     24 H8          8.2950   -0.6230    2.6120 hn        1 MOL      0.331969
     25 H9          8.1990   -1.6300    0.0390 h1        1 MOL      0.056828
     26 H10         9.2840    1.0470    0.9040 hc        1 MOL      0.066070
     27 H11        10.0570   -0.4890    0.8180 hc        1 MOL      0.066070
     28 H12         9.3840    0.2840   -0.7180 hc        1 MOL      0.066070
     29 N3          6.5260   -0.4610   -1.5300 n         1 MOL     -0.148432
     30 C10         5.4990   -0.0260   -2.4850 c3        1 MOL     -0.282617
     31 C11         6.1060    1.1710   -3.1800 c         1 MOL      0.749548
     32 O6          7.3070    1.3210   -3.3020 o         1 MOL     -0.546845
     33 C12         5.3050   -1.1470   -3.5060 c3        1 MOL      0.035957
     34 C13         5.1980   -2.5410   -2.9280 c         1 MOL      0.533285
     35 O7          6.1760   -3.3280   -3.1440 o         1 MOL     -0.651907
     36 O8          4.2850   -2.7700   -2.0820 o         1 MOL     -0.651907
     37 H13         7.2440   -1.0680   -1.8810 hn        1 MOL      0.247134
     38 H14         4.5290    0.1660   -2.0340 h1        1 MOL      0.122869
     39 H15         6.1730   -1.1140   -4.1630 hc        1 MOL     -0.041999
     40 H16         4.3890   -0.9620   -4.0690 hc        1 MOL     -0.041999
     41 N4          5.1720    2.0190   -3.6210 n         1 MOL     -0.514647
     42 C14         5.5010    3.3570   -4.1590 c3        1 MOL     -0.165815
     43 C15         4.5500    4.4030   -3.7240 c         1 MOL      0.801865
     44 O9          4.7880    5.5790   -3.7910 o         1 MOL     -0.617924
     45 H17         4.2480    1.6660   -3.8160 hn        1 MOL      0.321996
     46 H18         5.4210    3.3180   -5.2530 h1        1 MOL      0.091665
     47 H19         6.4360    3.8210   -3.8280 h1        1 MOL      0.091665
     48 N5          3.4280    4.0780   -3.0580 n         1 MOL     -0.591934
     49 C16         2.4020    5.0410   -2.6730 c3        1 MOL      0.275295
     50 C17         2.0740    4.8760   -1.2100 c         1 MOL      0.536984
     51 O10         2.2340    3.8110   -0.6710 o         1 MOL     -0.485382
     52 C18         1.1290    4.9100   -3.5350 c3        1 MOL     -0.487791
     53 C19         1.3070    5.1610   -4.9840 c         1 MOL      0.729147
     54 N6          1.2230    4.1520   -5.7940 n         1 MOL     -0.782678
     55 O11         1.6100    6.2160   -5.4370 o         1 MOL     -0.572024
     56 H20         3.1240    3.1260   -3.1770 hn        1 MOL      0.260235
     57 H21         2.8360    6.0290   -2.7720 h1        1 MOL      0.048824
     58 H22         0.3480    5.5920   -3.1850 hc        1 MOL      0.129577
     59 H23         0.7630    3.9000   -3.3950 hc        1 MOL      0.129577
     60 H24         0.9600    3.2360   -5.4420 hn        1 MOL      0.353495
     61 H25         1.2840    4.3560   -6.7840 hn        1 MOL      0.353495
     62 N7          1.6670    5.9430   -0.5720 n         1 MOL     -0.496596
     63 C20         1.1340    5.8990    0.8130 c3        1 MOL      0.043545
     64 C21        -0.3760    5.8540    0.8530 c         1 MOL      0.492886
     65 O12        -1.0150    5.2710   -0.0470 o         1 MOL     -0.481342
     66 H26         1.5900    6.7980   -1.1090 hn        1 MOL      0.285528
     67 H27         1.5170    6.8120    1.2720 h1        1 MOL      0.075492
     68 H28         1.5170    5.1000    1.4520 h1        1 MOL      0.075492
     69 N8         -0.9530    6.4540    1.9090 n         1 MOL     -0.302959
     70 C22        -2.4120    6.5910    2.0800 c3        1 MOL     -0.434727
     71 C23        -3.1390    5.3200    2.4430 c         1 MOL      0.695281
     72 O13        -4.2910    5.1540    2.0680 o         1 MOL     -0.598476
     73 C24        -2.8450    7.6370    3.0950 c3        1 MOL      0.632788
     74 C25        -2.2810    7.4050    4.4780 c3        1 MOL     -0.531748
     75 O14        -2.2890    8.8510    2.7120 oh        1 MOL     -0.702087
     76 H29        -0.3190    6.9480    2.5310 hn        1 MOL      0.200161
     77 H30        -2.7030    6.8990    1.0810 h1        1 MOL      0.183590
     78 H31        -3.9320    7.6630    3.1120 h1        1 MOL      0.014393
     79 H32        -1.3500    8.8680    2.8960 ho        1 MOL      0.411331
     80 H33        -2.8610    6.5090    4.7040 hc        1 MOL      0.127481
     81 H34        -1.1970    7.2440    4.5110 hc        1 MOL      0.127481
     82 H35        -2.6070    8.2390    5.0970 hc        1 MOL      0.127481
     83 N9         -2.4390    4.2960    2.9770 n         1 MOL     -0.336536
     84 C26        -2.8840    2.9400    3.0810 c3        1 MOL     -0.099768
     85 C27        -1.8850    1.9760    2.3640 c         1 MOL      0.627183
     86 O15        -0.6690    2.2510    2.2930 o         1 MOL     -0.507252
     87 C28        -3.1070    2.5810    4.6010 c3        1 MOL     -0.075284
     88 C29        -4.3140    3.4300    5.1880 c3        1 MOL      0.066236
     89 C30        -3.3430    1.0510    4.8060 c3        1 MOL     -0.094486
     90 C31        -4.1970    3.3530    6.6830 c3        1 MOL     -0.114062
     91 H36        -1.4960    4.5310    3.2770 hn        1 MOL      0.194098
     92 H37        -3.8050    2.8180    2.5200 h1        1 MOL      0.071700
     93 H38        -2.1960    2.7590    5.1590 hc        1 MOL      0.095171
     94 H39        -5.3190    3.1030    4.9510 hc        1 MOL      0.006775
     95 H40        -4.3150    4.4500    4.8240 hc        1 MOL      0.006775
     96 H41        -3.7660    0.7610    5.7690 hc        1 MOL      0.033148
     97 H42        -4.0700    0.7840    4.0410 hc        1 MOL      0.033148
     98 H43        -2.4390    0.4540    4.6610 hc        1 MOL      0.033148
     99 H44        -4.4690    2.3680    7.0670 hc        1 MOL      0.016494
    100 H45        -3.1750    3.6420    6.9210 hc        1 MOL      0.016494
    101 H46        -4.8100    4.1690    7.0640 hc        1 MOL      0.016494
    102 N10        -2.4990    0.9680    1.7750 n         1 MOL     -0.431446
    103 C32        -1.8140    0.1210    0.7850 c3        1 MOL      0.079683
    104 C33        -2.8340   -0.3680   -0.2720 c         1 MOL      0.568254
    105 O16        -2.7540   -1.4310   -0.8290 o         1 MOL     -0.456614
    106 C34        -1.0820   -1.0480    1.4040 c3        1 MOL     -0.211732
    107 C35        -0.0530   -1.7340    0.5370 c         1 MOL      0.771582
    108 O17         0.2080   -1.3440   -0.6100 o         1 MOL     -0.731220
    109 O18         0.5530   -2.6820    1.0700 o         1 MOL     -0.731220
    110 H47        -3.4570    0.7160    1.9860 hn        1 MOL      0.275233
    111 H48        -1.1240    0.6650    0.1490 h1        1 MOL      0.066968
    112 H49        -1.8450   -1.7440    1.7520 hc        1 MOL      0.056983
    113 H50        -0.6540   -0.6340    2.3190 hc        1 MOL      0.056983
    114 N11        -3.8180    0.4860   -0.7180 n         1 MOL     -0.579683
    115 C36        -4.9770    0.0410   -1.5250 c3        1 MOL      0.201016
    116 C37        -5.6390   -1.3030   -1.1040 c         1 MOL      0.365619
    117 O19        -5.7770   -1.5170    0.1430 o         1 MOL     -0.526911
    118 C38        -6.0080    1.1940   -1.5390 c3        1 MOL     -0.237809
    119 C39        -7.3140    0.7500   -2.1440 ca        1 MOL      0.025406
    120 C40        -8.3100    0.1000   -1.3660 ca        1 MOL     -0.093499
    121 C41        -7.5910    0.9440   -3.5200 ca        1 MOL     -0.093499
    122 C42        -9.4890   -0.3230   -1.9320 ca        1 MOL     -0.176803
    123 C43        -8.8110    0.5330   -4.1280 ca        1 MOL     -0.176803
    124 C44        -9.8060   -0.1360   -3.3000 ca        1 MOL     -0.071957
    125 H51        -3.8030    1.4000   -0.2980 hn        1 MOL      0.283152
    126 H52        -4.6820   -0.1280   -2.5670 h1        1 MOL      0.041843
    127 H53        -5.6360    2.0240   -2.1380 hc        1 MOL      0.113955
    128 H54        -6.2270    1.5990   -0.5480 hc        1 MOL      0.113955
    129 H55        -8.1710   -0.1730   -0.3360 ha        1 MOL      0.099230
    130 H56        -6.8400    1.4480   -4.1130 ha        1 MOL      0.099230
    131 H57       -10.2130   -0.8360   -1.3110 ha        1 MOL      0.125711
    132 H58        -8.8960    0.6040   -5.1990 ha        1 MOL      0.125711
    133 H59       -10.7480   -0.3620   -3.7840 ha        1 MOL      0.097364
    134 N12        -5.9260   -2.3500   -1.9840 n         1 MOL      0.057898
    135 C45        -6.7220   -3.4960   -1.7180 c3        1 MOL      0.047426
    136 C46        -6.0410   -4.4630   -0.7040 c         1 MOL      0.117651
    137 O20        -6.6750   -5.4540   -0.2660 o         1 MOL     -0.494801
    138 C47        -6.9720   -4.1520   -3.1080 c3        1 MOL     -0.096443
    139 C48        -5.6590   -3.8620   -3.7570 c3        1 MOL      0.258614
    140 C49        -5.4830   -2.3710   -3.3850 c3        1 MOL     -0.373710
    141 H60        -7.7130   -3.2570   -1.3180 h1        1 MOL      0.065665
    142 H61        -7.1180   -5.2360   -3.0760 hc        1 MOL      0.042989
    143 H62        -7.7650   -3.5810   -3.5950 hc        1 MOL      0.042989
    144 H63        -4.7900   -4.4040   -3.3930 hc        1 MOL     -0.042287
    145 H64        -5.7680   -3.9640   -4.8390 hc        1 MOL     -0.042287
    146 H65        -4.4930   -1.9290   -3.4300 h1        1 MOL      0.100481
    147 H66        -6.1890   -1.7840   -3.9820 h1        1 MOL      0.100481
    148 N13        -4.7470   -4.2960   -0.3540 n         1 MOL      0.189877
    149 C50        -4.0760   -5.2240    0.5510 c3        1 MOL     -0.212871
    150 C51        -4.5450   -5.1770    2.0430 c         1 MOL      0.358746
    151 O21        -4.3400   -6.1820    2.7970 o         1 MOL     -0.509922
    152 C52        -2.5280   -5.0060    0.4230 c3        1 MOL      0.243353
    153 C53        -2.0690   -5.5070   -0.9180 c3        1 MOL     -0.446342
    154 C54        -0.5920   -5.0020   -1.0930 c         1 MOL      0.823225
    155 O22         0.3160   -5.3050   -0.2410 o         1 MOL     -0.743804
    156 O23        -0.2260   -4.3440   -2.0940 o         1 MOL     -0.743804
    157 H67        -4.2620   -3.4550   -0.6310 hn        1 MOL      0.119665
    158 H68        -4.3790   -6.2110    0.2070 h1        1 MOL      0.121931
    159 H69        -2.0630   -5.5800    1.2180 hc        1 MOL     -0.001018
    160 H70        -2.2710   -3.9480    0.4470 hc        1 MOL     -0.001018
    161 H71        -2.7260   -5.0090   -1.6320 hc        1 MOL      0.074088
    162 H72        -2.2850   -6.5730   -0.9980 hc        1 MOL      0.074088
    163 N14        -4.9910   -4.0010    2.5070 n         1 MOL     -0.133581
    164 C55        -5.2480   -3.5880    3.9240 c3        1 MOL     -0.405695
    165 H73        -5.6290   -2.5670    3.9410 h1        1 MOL      0.147681
    166 H74        -5.9840   -4.2570    4.3700 h1        1 MOL      0.147681
    167 H75        -4.3190   -3.6380    4.4920 h1        1 MOL      0.147681
    168 H76        -5.0790   -3.2570    1.8190 hn        1 MOL      0.179405
    169 Ca1         1.9290   -3.2400   -1.0740 Ca        1 MOL      1.782080
    170 O24         3.1380   -1.2150    0.1250 oh        1 MOL     -0.880708
    171 H77         2.7150   -0.3600    0.1720 ho        1 MOL      0.422932
    172 H78         3.8630   -1.1590    0.7450 ho        1 MOL      0.422932
    173 O25         2.5380   -4.8730   -3.1620 oh        1 MOL     -0.880708
    174 H79         2.6410   -5.7510   -3.5310 ho        1 MOL      0.422932
    175 H80         3.0630   -4.3090   -3.7450 ho        1 MOL      0.422932
    176 O26         3.7640   -3.9420    0.7280 oh        1 MOL     -0.880708
    177 H81         3.8850   -4.5910    1.4230 ho        1 MOL      0.422932
    178 H82         4.5310   -3.3710    0.7960 ho        1 MOL      0.422932
    179 O27         1.4140   -2.0160   -3.4940 oh        1 MOL     -0.880708
    180 H83         0.5270   -1.6640   -3.4360 ho        1 MOL      0.422932
    181 H84         1.7060   -1.8020   -4.3780 ho        1 MOL      0.422932
@<TRIPOS>BOND
     1    1    2 1   
     2    1    4 1   
     3    1    5 1   
     4    1    6 1   
     5    2    3 2   
     6    2    7 1   
     7    7    8 1   
     8    7   15 1   
     9    8    9 1   
    10    8   11 1   
    11    8   16 1   
    12    9   10 2   
    13    9   19 1   
    14   11   12 1   
    15   11   17 1   
    16   11   18 1   
    17   12   13 1   
    18   12   14 1   
    19   19   20 1   
    20   19   24 1   
    21   20   21 1   
    22   20   23 1   
    23   20   25 1   
    24   21   22 2   
    25   21   29 1   
    26   23   26 1   
    27   23   27 1   
    28   23   28 1   
    29   29   30 1   
    30   29   37 1   
    31   30   31 1   
    32   30   33 1   
    33   30   38 1   
    34   31   32 2   
    35   31   41 1   
    36   33   34 1   
    37   33   39 1   
    38   33   40 1   
    39   34   35 1   
    40   34   36 1   
    41   41   42 1   
    42   41   45 1   
    43   42   43 1   
    44   42   46 1   
    45   42   47 1   
    46   43   44 2   
    47   43   48 1   
    48   48   49 1   
    49   48   56 1   
    50   49   50 1   
    51   49   52 1   
    52   49   57 1   
    53   50   51 2   
    54   50   62 1   
    55   52   53 1   
    56   52   58 1   
    57   52   59 1   
    58   53   54 1   
    59   53   55 2   
    60   54   60 1   
    61   54   61 1   
    62   62   63 1   
    63   62   66 1   
    64   63   64 1   
    65   63   67 1   
    66   63   68 1   
    67   64   65 2   
    68   64   69 1   
    69   69   70 1   
    70   69   76 1   
    71   70   71 1   
    72   70   73 1   
    73   70   77 1   
    74   71   72 2   
    75   71   83 1   
    76   73   74 1   
    77   73   75 1   
    78   73   78 1   
    79   74   80 1   
    80   74   81 1   
    81   74   82 1   
    82   75   79 1   
    83   83   84 1   
    84   83   91 1   
    85   84   85 1   
    86   84   87 1   
    87   84   92 1   
    88   85   86 2   
    89   85  102 1   
    90   87   88 1   
    91   87   89 1   
    92   87   93 1   
    93   88   90 1   
    94   88   94 1   
    95   88   95 1   
    96   89   96 1   
    97   89   97 1   
    98   89   98 1   
    99   90   99 1   
   100   90  100 1   
   101   90  101 1   
   102  102  103 1   
   103  102  110 1   
   104  103  104 1   
   105  103  106 1   
   106  103  111 1   
   107  104  105 2   
   108  104  114 1   
   109  106  107 1   
   110  106  112 1   
   111  106  113 1   
   112  107  108 1   
   113  107  109 1   
   114  114  115 1   
   115  114  125 1   
   116  115  116 1   
   117  115  118 1   
   118  115  126 1   
   119  116  117 2   
   120  116  134 1   
   121  118  119 1   
   122  118  127 1   
   123  118  128 1   
   124  119  120 ar  
   125  119  121 ar  
   126  120  122 ar  
   127  120  129 1   
   128  121  123 ar  
   129  121  130 1   
   130  122  124 ar  
   131  122  131 1   
   132  123  124 ar  
   133  123  132 1   
   134  124  133 1   
   135  134  135 1   
   136  134  140 1   
   137  135  136 1   
   138  135  138 1   
   139  135  141 1   
   140  136  137 2   
   141  136  148 1   
   142  138  139 1   
   143  138  142 1   
   144  138  143 1   
   145  139  140 1   
   146  139  144 1   
   147  139  145 1   
   148  140  146 1   
   149  140  147 1   
   150  148  149 1   
   151  148  157 1   
   152  149  150 1   
   153  149  152 1   
   154  149  158 1   
   155  150  151 2   
   156  150  163 1   
   157  152  153 1   
   158  152  159 1   
   159  152  160 1   
   160  153  154 1   
   161  153  161 1   
   162  153  162 1   
   163  154  155 1   
   164  154  156 1   
   165  163  164 1   
   166  163  168 1   
   167  164  165 1   
   168  164  166 1   
   169  164  167 1   
   170  170  171 1   
   171  170  172 1   
   172  173  174 1   
   173  173  175 1   
   174  176  177 1   
   175  176  178 1   
   176  179  180 1   
   177  179  181 1   
@<TRIPOS>SUBSTRUCTURE
     1 MOL         1 TEMP              0 ****  ****    0 ROOT
