@<TRIPOS>MOLECULE
MOL
  192   187     1     0     0
SMALL
resp


@<TRIPOS>ATOM
      1 C1          9.8930    0.9190    1.3460 c3        1 MOL     -0.535829
      2 C2          8.6730    0.1250    0.6590 c         1 MOL      0.822320
      3 O1          7.5530    0.2040    1.1560 o         1 MOL     -0.668380
      4 H1          9.4990    1.6360    2.0660 hc        1 MOL      0.139297
      5 H2         10.5460    0.2120    1.8570 hc        1 MOL      0.139297
      6 H3         10.4590    1.4490    0.5800 hc        1 MOL      0.139297
      7 N1          8.9700   -0.6200   -0.3840 n         1 MOL     -0.798643
      8 C3          7.9400   -0.8390   -1.4430 c3        1 MOL      0.562503
      9 C4          6.9350   -1.9280   -1.2380 c         1 MOL      0.182233
     10 O2          6.5260   -2.6010   -2.2370 o         1 MOL     -0.471702
     11 C5          8.5320   -0.7800   -2.8940 c3        1 MOL     -0.268522
     12 C6          9.4900    0.3280   -3.1370 c         1 MOL      0.752017
     13 O3          9.0940    1.5230   -3.2190 o         1 MOL     -0.665520
     14 O4         10.7070    0.0630   -2.9930 o         1 MOL     -0.665520
     15 H4          9.9340   -0.8850   -0.5370 hn        1 MOL      0.361443
     16 H5          7.2830    0.0300   -1.3970 h1        1 MOL      0.002505
     17 H6          7.6950   -0.6380   -3.5740 hc        1 MOL      0.039839
     18 H7          9.0500   -1.7200   -3.0670 hc        1 MOL      0.039839
     19 N2          6.7700   -2.3560   -0.0170 n         1 MOL     -0.070248
     20 C7          6.0800   -3.6230    0.3230 c3        1 MOL      0.025510
     21 C8          4.5700   -3.7660   -0.0300 c         1 MOL      0.480265
     22 O5          4.2380   -4.8730   -0.5160 o         1 MOL     -0.547570
     23 C9          6.2060   -3.9350    1.8310 c3        1 MOL     -0.170315
     24 C10         7.6740   -4.1000    2.2960 c3        1 MOL      0.018300
     25 C11         7.9070   -3.9270    3.8330 c3        1 MOL     -0.133954
     26 C12         9.3010   -4.4540    4.2220 c3        1 MOL      0.101418
     27 N3          9.6590   -4.2350    5.6360 n4        1 MOL     -0.282504
     28 H8          7.3170   -1.8550    0.6670 hn        1 MOL      0.116698
     29 H9          6.5810   -4.4300   -0.1980 h1        1 MOL      0.075243
     30 H10         5.7120   -4.8700    2.1240 hc        1 MOL      0.071944
     31 H11         5.6740   -3.2150    2.4410 hc        1 MOL      0.071944
     32 H12         8.3820   -3.4700    1.7590 hc        1 MOL      0.031979
     33 H13         8.1320   -5.0240    1.9290 hc        1 MOL      0.031979
     34 H14         7.2110   -4.5140    4.4440 hc        1 MOL      0.059358
     35 H15         7.7430   -2.9140    4.1960 hc        1 MOL      0.059358
     36 H16         9.9490   -3.9740    3.4870 hx        1 MOL      0.052592
     37 H17         9.3320   -5.5130    4.0020 hx        1 MOL      0.052592
     38 H18        10.5130   -4.7230    5.8340 hn        1 MOL      0.263049
     39 H19         9.8770   -3.2590    5.7720 hn        1 MOL      0.263049
     40 H20         8.9420   -4.5730    6.2590 hn        1 MOL      0.263049
     41 N4          3.7060   -2.8010    0.1410 n         1 MOL     -0.355536
     42 C13         3.8780   -1.4370    0.7420 c3        1 MOL     -0.079461
     43 C14         4.0150   -0.3690   -0.3350 c         1 MOL      0.294109
     44 O6          3.8220   -0.6200   -1.5240 o         1 MOL     -0.426965
     45 C15         2.6300   -1.1340    1.5840 c3        1 MOL      0.018425
     46 C16         1.2660   -1.6540    1.0890 c         1 MOL      0.480618
     47 O7          0.9680   -1.3470   -0.1060 o         1 MOL     -0.620740
     48 O8          0.5180   -2.3210    1.8430 o         1 MOL     -0.620740
     49 H21         2.8540   -2.8450   -0.4050 hn        1 MOL      0.322473
     50 H22         4.7460   -1.3120    1.3960 h1        1 MOL      0.099111
     51 H23         2.5600   -0.0480    1.7250 hc        1 MOL      0.002398
     52 H24         2.8450   -1.4540    2.5980 hc        1 MOL      0.002398
     53 N5          4.3800    0.8140    0.1070 n         1 MOL     -0.088916
     54 C17         4.3930    2.0620   -0.7410 c3        1 MOL     -0.342731
     55 C18         3.0120    2.5550   -1.1520 c         1 MOL      0.650372
     56 O9          1.9680    1.9190   -0.8970 o         1 MOL     -0.466646
     57 H25         4.5620    0.9380    1.0960 hn        1 MOL      0.243699
     58 H26         4.9320    1.8150   -1.6450 h1        1 MOL      0.150387
     59 H27         4.9510    2.8790   -0.2780 h1        1 MOL      0.150387
     60 N6          3.0390    3.7100   -1.7810 n         1 MOL     -0.603232
     61 C19         1.8470    4.4810   -2.1960 c3        1 MOL      0.382999
     62 C20         2.0520    6.0050   -2.0010 c         1 MOL      0.343012
     63 O10         3.2550    6.4120   -1.8960 o         1 MOL     -0.534602
     64 C21         1.4910    4.2310   -3.7090 c3        1 MOL     -0.314680
     65 C22         1.0010    2.7950   -3.9690 c         1 MOL      0.557557
     66 O11         1.5080    2.1510   -4.9930 o         1 MOL     -0.612749
     67 O12         0.0800    2.3450   -3.2240 o         1 MOL     -0.612749
     68 H28         3.9410    4.0110   -2.1210 hn        1 MOL      0.357897
     69 H29         0.9860    4.2260   -1.5820 h1        1 MOL     -0.004275
     70 H30         2.4130    4.4410   -4.2530 hc        1 MOL      0.091996
     71 H31         0.7320    4.9360   -4.0600 hc        1 MOL      0.091996
     72 N7          1.1320    6.9440   -2.0290 n         1 MOL     -0.369111
     73 C23        -0.3470    6.8030   -2.1340 c3        1 MOL     -0.053808
     74 C24        -1.0500    6.4450   -0.7730 c         1 MOL      0.567987
     75 O13        -0.5120    6.7120    0.3300 o         1 MOL     -0.492153
     76 H32         1.4170    7.8860   -1.7780 hn        1 MOL      0.312515
     77 H33        -0.5570    5.9450   -2.7690 h1        1 MOL      0.067098
     78 H34        -0.8350    7.6400   -2.6260 h1        1 MOL      0.067098
     79 N8         -2.1950    5.7070   -0.8600 n         1 MOL     -0.575258
     80 C25        -2.7690    4.9280    0.2200 c3        1 MOL     -0.258121
     81 C26        -1.8040    3.8800    0.7060 c         1 MOL      0.776978
     82 O14        -1.1520    3.2640   -0.1230 o         1 MOL     -0.617345
     83 C27        -4.1510    4.5200   -0.2550 c3        1 MOL      0.307701
     84 C28        -5.1220    3.9090    0.8030 c3        1 MOL     -0.231101
     85 O15        -4.1250    3.6140   -1.3040 oh        1 MOL     -0.549261
     86 H35        -2.5940    5.5730   -1.7810 hn        1 MOL      0.351423
     87 H36        -2.9360    5.6560    1.0170 h1        1 MOL      0.139044
     88 H37        -4.6290    5.3820   -0.7060 h1        1 MOL      0.051914
     89 H38        -3.3170    3.7270   -1.8050 ho        1 MOL      0.319336
     90 H39        -5.9720    3.4590    0.2960 hc        1 MOL      0.066181
     91 H40        -4.6610    3.1340    1.4200 hc        1 MOL      0.066181
     92 H41        -5.4840    4.7240    1.4220 hc        1 MOL      0.066181
     93 N9         -1.6640    3.7370    2.0700 n         1 MOL     -0.379229
     94 C29        -0.8130    2.6850    2.7510 c3        1 MOL      0.092807
     95 C30        -1.2950    1.2830    2.3290 c         1 MOL     -0.009725
     96 O16        -0.7470    0.7430    1.3630 o         1 MOL     -0.355912
     97 C31         0.7810    2.8630    2.5670 c3        1 MOL      0.339089
     98 C32         1.1920    4.3410    2.8800 c3        1 MOL     -0.212852
     99 C33         1.5110    1.7780    3.3670 c3        1 MOL     -0.404701
    100 C34         0.9610    4.8420    4.3150 c3        1 MOL     -0.225519
    101 H42        -2.2550    4.3470    2.6100 hn        1 MOL      0.234867
    102 H43        -0.9730    2.8880    3.8130 h1        1 MOL      0.058919
    103 H44         0.9700    2.6090    1.5200 hc        1 MOL     -0.142225
    104 H45         0.5610    4.9390    2.2150 hc        1 MOL      0.094014
    105 H46         2.2460    4.3790    2.6010 hc        1 MOL      0.094014
    106 H47         1.5140    2.1000    4.4090 hc        1 MOL      0.102853
    107 H48         0.9250    0.8600    3.4380 hc        1 MOL      0.102853
    108 H49         2.5350    1.6000    3.0300 hc        1 MOL      0.102853
    109 H50         0.9400    5.9300    4.3110 hc        1 MOL      0.061408
    110 H51        -0.0450    4.5840    4.6350 hc        1 MOL      0.061408
    111 H52         1.7630    4.4970    4.9800 hc        1 MOL      0.061408
    112 N10        -2.2630    0.7170    3.1060 n         1 MOL     -0.018507
    113 C35        -2.6500   -0.7470    3.0910 c3        1 MOL     -0.227942
    114 C36        -4.1760   -0.9550    3.1500 c         1 MOL      0.584158
    115 O17        -4.6760   -2.0080    3.4800 o         1 MOL     -0.577413
    116 C37        -1.9960   -1.4370    4.2470 c3        1 MOL      0.519106
    117 C38        -2.3620   -1.0010    5.6560 c3        1 MOL     -0.298793
    118 O18        -0.5810   -1.2890    4.0800 oh        1 MOL     -0.632880
    119 H53        -2.6210    1.2410    3.8920 hn        1 MOL      0.180995
    120 H54        -2.2650   -1.2610    2.2130 h1        1 MOL      0.167625
    121 H55        -2.1690   -2.5190    4.2170 h1        1 MOL     -0.001341
    122 H56        -0.3710   -1.4210    3.1490 ho        1 MOL      0.353262
    123 H57        -1.5250   -1.3060    6.2840 hc        1 MOL      0.064957
    124 H58        -2.4430    0.0860    5.6090 hc        1 MOL      0.064957
    125 H59        -3.2980   -1.5250    5.8370 hc        1 MOL      0.064957
    126 N11        -4.9760    0.1060    2.9120 n         1 MOL     -0.427959
    127 C39        -6.4600   -0.0280    2.7950 c3        1 MOL      0.165744
    128 C40        -6.8280   -0.6020    1.4740 c         1 MOL      0.533872
    129 O19        -7.1660    0.2450    0.5640 o         1 MOL     -0.508477
    130 C41        -7.1630    1.2900    3.1770 c3        1 MOL      0.409787
    131 C42        -8.6710    1.2460    3.0560 c3        1 MOL     -0.340267
    132 O20        -6.8910    1.6090    4.4990 oh        1 MOL     -0.695960
    133 H60        -4.5800    0.9870    2.6170 hn        1 MOL      0.209338
    134 H61        -6.8600   -0.7700    3.4940 h1        1 MOL      0.042957
    135 H62        -6.7620    2.0580    2.5160 h1        1 MOL     -0.054387
    136 H63        -6.9400    2.5200    4.7740 ho        1 MOL      0.430472
    137 H64        -9.1870    1.9400    3.7220 hc        1 MOL      0.084150
    138 H65        -9.0540    1.4070    2.0520 hc        1 MOL      0.084150
    139 H66        -9.0360    0.2460    3.2970 hc        1 MOL      0.084150
    140 N12        -6.6970   -1.9870    1.3320 n         1 MOL     -0.683310
    141 C43        -6.4290   -2.7270    0.0930 c3        1 MOL      0.039834
    142 C44        -5.1040   -2.3520   -0.5220 c         1 MOL      0.725551
    143 O21        -4.6850   -1.2230   -0.4550 o         1 MOL     -0.523032
    144 C45        -7.6110   -2.5650   -0.9710 c3        1 MOL     -0.303704
    145 C46        -9.1020   -2.8330   -0.4610 c3        1 MOL      0.233307
    146 C47       -10.0040   -2.6400   -1.7110 c3        1 MOL     -0.181092
    147 C48       -11.4250   -2.6220   -1.1510 c3        1 MOL      0.172712
    148 N13       -12.3530   -2.2680   -2.2040 n4        1 MOL     -0.196000
    149 H67        -6.3610   -2.4460    2.1700 hn        1 MOL      0.384382
    150 H68        -6.3930   -3.7730    0.3800 h1        1 MOL      0.081318
    151 H69        -7.4550   -3.1210   -1.8980 hc        1 MOL      0.104452
    152 H70        -7.6050   -1.5050   -1.2180 hc        1 MOL      0.104452
    153 H71        -9.3310   -2.1290    0.3410 hc        1 MOL     -0.016972
    154 H72        -9.2290   -3.8840   -0.2100 hc        1 MOL     -0.016972
    155 H73        -9.8820   -3.5360   -2.3180 hc        1 MOL      0.071788
    156 H74        -9.7200   -1.7110   -2.2200 hc        1 MOL      0.071788
    157 H75       -11.6150   -1.8060   -0.4450 hx        1 MOL      0.029369
    158 H76       -11.6940   -3.5050   -0.5760 hx        1 MOL      0.029369
    159 H77       -12.1580   -1.3470   -2.5800 hn        1 MOL      0.214524
    160 H78       -12.2900   -2.8990   -2.9940 hn        1 MOL      0.214524
    161 H79       -13.3230   -2.3630   -1.9460 hn        1 MOL      0.214524
    162 N14        -4.4980   -3.2100   -1.3550 n         1 MOL     -0.687305
    163 C49        -3.2230   -2.9770   -2.1600 c3        1 MOL      0.324146
    164 C50        -2.0100   -2.7010   -1.2000 c         1 MOL      0.258305
    165 O22        -1.4400   -1.6110   -1.3070 o         1 MOL     -0.522182
    166 C51        -2.8830   -4.1320   -3.1330 c3        1 MOL      0.139381
    167 C52        -3.9310   -4.5070   -4.1420 c3        1 MOL     -0.147965
    168 C53        -3.5950   -5.7640   -4.9960 c         1 MOL      0.663591
    169 O23        -3.0830   -5.5510   -6.1210 o         1 MOL     -0.637853
    170 O24        -3.8710   -6.9120   -4.5860 o         1 MOL     -0.637853
    171 H80        -4.9700   -4.0720   -1.5640 hn        1 MOL      0.352157
    172 H81        -3.2690   -2.0780   -2.7640 h1        1 MOL     -0.002336
    173 H82        -2.7500   -5.0830   -2.6070 hc        1 MOL     -0.000523
    174 H83        -1.9610   -3.8860   -3.6590 hc        1 MOL     -0.000523
    175 H84        -4.0600   -3.6810   -4.8480 hc        1 MOL     -0.028475
    176 H85        -4.8160   -4.7340   -3.5640 hc        1 MOL     -0.028475
    177 N15        -1.5980   -3.4820   -0.1970 n         1 MOL     -0.353764
    178 C54        -2.1520   -4.6990    0.4300 c3        1 MOL     -0.043168
    179 H86        -1.6120   -5.5720    0.0660 h1        1 MOL      0.044561
    180 H87        -2.0460   -4.6310    1.5120 h1        1 MOL      0.044561
    181 H88        -3.2070   -4.7920    0.1730 h1        1 MOL      0.044561
    182 H89        -0.7440   -3.1540    0.2420 hn        1 MOL      0.377019
    183 Ca1        -0.4410    0.7890   -1.2270 Ca        1 MOL      1.662030
    184 O25        -3.1150    0.9920   -0.7360 oh        1 MOL     -0.804068
    185 H90        -3.7050    0.2510   -0.5700 ho        1 MOL      0.395827
    186 H91        -3.6410    1.6210   -1.2120 ho        1 MOL      0.395827
    187 O26         1.2420   -0.5000   -2.8420 oh        1 MOL     -0.804068
    188 H92         1.8980   -0.8790   -2.2670 ho        1 MOL      0.395827
    189 H93         1.1210   -1.1510   -3.5410 ho        1 MOL      0.395827
    190 O27        -2.0710    0.5750   -3.4000 oh        1 MOL     -0.804068
    191 H94        -2.9980    0.7170   -3.6160 ho        1 MOL      0.395827
    192 H95        -1.6480    0.4590   -4.2530 ho        1 MOL      0.395827
@<TRIPOS>BOND
     1    1    2 1   
     2    1    4 1   
     3    1    5 1   
     4    1    6 1   
     5    2    3 2   
     6    2    7 1   
     7    7    8 1   
     8    7   15 1   
     9    8    9 1   
    10    8   11 1   
    11    8   16 1   
    12    9   10 2   
    13    9   19 1   
    14   11   12 1   
    15   11   17 1   
    16   11   18 1   
    17   12   13 1   
    18   12   14 1   
    19   19   20 1   
    20   19   28 1   
    21   20   21 1   
    22   20   23 1   
    23   20   29 1   
    24   21   22 2   
    25   21   41 1   
    26   23   24 1   
    27   23   30 1   
    28   23   31 1   
    29   24   25 1   
    30   24   32 1   
    31   24   33 1   
    32   25   26 1   
    33   25   34 1   
    34   25   35 1   
    35   26   27 1   
    36   26   36 1   
    37   26   37 1   
    38   27   38 1   
    39   27   39 1   
    40   27   40 1   
    41   41   42 1   
    42   41   49 1   
    43   42   43 1   
    44   42   45 1   
    45   42   50 1   
    46   43   44 2   
    47   43   53 1   
    48   45   46 1   
    49   45   51 1   
    50   45   52 1   
    51   46   47 1   
    52   46   48 1   
    53   53   54 1   
    54   53   57 1   
    55   54   55 1   
    56   54   58 1   
    57   54   59 1   
    58   55   56 2   
    59   55   60 1   
    60   60   61 1   
    61   60   68 1   
    62   61   62 1   
    63   61   64 1   
    64   61   69 1   
    65   62   63 2   
    66   62   72 1   
    67   64   65 1   
    68   64   70 1   
    69   64   71 1   
    70   65   66 1   
    71   65   67 1   
    72   72   73 1   
    73   72   76 1   
    74   73   74 1   
    75   73   77 1   
    76   73   78 1   
    77   74   75 2   
    78   74   79 1   
    79   79   80 1   
    80   79   86 1   
    81   80   81 1   
    82   80   83 1   
    83   80   87 1   
    84   81   82 2   
    85   81   93 1   
    86   83   84 1   
    87   83   85 1   
    88   83   88 1   
    89   84   90 1   
    90   84   91 1   
    91   84   92 1   
    92   85   89 1   
    93   93   94 1   
    94   93  101 1   
    95   94   95 1   
    96   94   97 1   
    97   94  102 1   
    98   95   96 2   
    99   95  112 1   
   100   97   98 1   
   101   97   99 1   
   102   97  103 1   
   103   98  100 1   
   104   98  104 1   
   105   98  105 1   
   106   99  106 1   
   107   99  107 1   
   108   99  108 1   
   109  100  109 1   
   110  100  110 1   
   111  100  111 1   
   112  112  113 1   
   113  112  119 1   
   114  113  114 1   
   115  113  116 1   
   116  113  120 1   
   117  114  115 2   
   118  114  126 1   
   119  116  117 1   
   120  116  118 1   
   121  116  121 1   
   122  117  123 1   
   123  117  124 1   
   124  117  125 1   
   125  118  122 1   
   126  126  127 1   
   127  126  133 1   
   128  127  128 1   
   129  127  130 1   
   130  127  134 1   
   131  128  129 2   
   132  128  140 1   
   133  130  131 1   
   134  130  132 1   
   135  130  135 1   
   136  131  137 1   
   137  131  138 1   
   138  131  139 1   
   139  132  136 1   
   140  140  141 1   
   141  140  149 1   
   142  141  142 1   
   143  141  144 1   
   144  141  150 1   
   145  142  143 2   
   146  142  162 1   
   147  144  145 1   
   148  144  151 1   
   149  144  152 1   
   150  145  146 1   
   151  145  153 1   
   152  145  154 1   
   153  146  147 1   
   154  146  155 1   
   155  146  156 1   
   156  147  148 1   
   157  147  157 1   
   158  147  158 1   
   159  148  159 1   
   160  148  160 1   
   161  148  161 1   
   162  162  163 1   
   163  162  171 1   
   164  163  164 1   
   165  163  166 1   
   166  163  172 1   
   167  164  165 2   
   168  164  177 1   
   169  166  167 1   
   170  166  173 1   
   171  166  174 1   
   172  167  168 1   
   173  167  175 1   
   174  167  176 1   
   175  168  169 1   
   176  168  170 1   
   177  177  178 1   
   178  177  182 1   
   179  178  179 1   
   180  178  180 1   
   181  178  181 1   
   182  184  185 1   
   183  184  186 1   
   184  187  188 1   
   185  187  189 1   
   186  190  191 1   
   187  190  192 1   
@<TRIPOS>SUBSTRUCTURE
     1 MOL         1 TEMP              0 ****  ****    0 ROOT
