@<TRIPOS>MOLECULE
MOL
  198   191     1     0     0
SMALL
resp


@<TRIPOS>ATOM
      1 C1          3.6590   -7.7710   -1.9940 c3        1 MOL     -0.424035
      2 C2          3.3570   -6.2870   -1.6470 c         1 MOL      0.758651
      3 O1          3.1020   -5.9430   -0.4920 o         1 MOL     -0.591613
      4 H1          2.8590   -8.1680   -2.6190 hc        1 MOL      0.114362
      5 H2          4.6050   -7.8330   -2.5330 hc        1 MOL      0.114362
      6 H3          3.7250   -8.3530   -1.0750 hc        1 MOL      0.114362
      7 N1          3.3340   -5.3310   -2.6040 n         1 MOL     -0.624247
      8 C3          3.3530   -3.8850   -2.4650 c3        1 MOL      0.212860
      9 C4          2.0110   -3.1050   -2.4820 c         1 MOL      0.334148
     10 O2          1.8410   -1.9550   -2.8650 o         1 MOL     -0.569995
     11 C5          4.1800   -3.2870   -3.5830 c3        1 MOL     -0.196754
     12 C6          5.6410   -3.7300   -3.5740 c         1 MOL      0.755032
     13 O3          6.4460   -2.9410   -3.0640 o         1 MOL     -0.696137
     14 O4          5.9710   -4.7540   -4.2410 o         1 MOL     -0.696137
     15 H4          3.3340   -5.6910   -3.5460 hn        1 MOL      0.275557
     16 H5          3.8610   -3.6920   -1.5160 h1        1 MOL      0.086156
     17 H6          4.2740   -2.2070   -3.5380 hc        1 MOL      0.022468
     18 H7          3.8290   -3.4970   -4.5920 hc        1 MOL      0.022468
     19 N2          1.0190   -3.7780   -2.0020 n         1 MOL     -0.000878
     20 C7         -0.4240   -3.3440   -2.0780 c3        1 MOL      0.092555
     21 C8         -0.9760   -3.4410   -0.6110 c         1 MOL      0.267058
     22 O5         -0.6310   -4.4070    0.1020 o         1 MOL     -0.470027
     23 C9         -1.1890   -4.2650   -3.0420 c3        1 MOL     -0.431133
     24 C10        -0.7130   -4.4130   -4.4990 c3        1 MOL     -0.240840
     25 C11        -0.7900   -3.0490   -5.2510 c3        1 MOL     -0.005026
     26 C12        -0.1140   -3.2810   -6.6550 c3        1 MOL      0.041340
     27 N3         -0.0890   -2.0640   -7.4500 n4        1 MOL     -0.498175
     28 H8          1.2540   -4.7130   -1.7070 hn        1 MOL      0.132494
     29 H9         -0.5100   -2.3310   -2.4660 h1        1 MOL      0.122285
     30 H10        -2.2090   -3.8910   -3.1480 hc        1 MOL      0.174266
     31 H11        -1.0910   -5.2680   -2.6380 hc        1 MOL      0.174266
     32 H12        -1.5180   -4.9460   -4.9920 hc        1 MOL      0.101453
     33 H13         0.3190   -4.7400   -4.6160 hc        1 MOL      0.101453
     34 H14        -0.2760   -2.2300   -4.7720 hc        1 MOL      0.077967
     35 H15        -1.8400   -2.7520   -5.2180 hc        1 MOL      0.077967
     36 H16        -0.6160   -4.1410   -7.1130 hx        1 MOL      0.071974
     37 H17         0.9140   -3.6040   -6.4710 hx        1 MOL      0.071974
     38 H18        -1.0450   -1.7740   -7.5910 hn        1 MOL      0.374243
     39 H19         0.4590   -1.4380   -6.8800 hn        1 MOL      0.374243
     40 H20         0.4100   -2.2490   -8.3050 hn        1 MOL      0.374243
     41 N4         -1.7440   -2.4760   -0.0400 n         1 MOL     -0.095330
     42 C13        -1.9570   -1.1010   -0.6150 c3        1 MOL     -0.147001
     43 C14        -2.5800   -0.9500   -2.0440 c         1 MOL      0.311870
     44 O6         -1.9520   -0.6670   -3.0760 o         1 MOL     -0.552770
     45 C15        -0.8110   -0.0970   -0.2710 c3        1 MOL     -0.149677
     46 C16        -0.7100    0.1470    1.2670 c         1 MOL      0.762038
     47 O7         -1.5890   -0.3430    2.0440 o         1 MOL     -0.743710
     48 O8          0.2490    0.7960    1.7180 o         1 MOL     -0.743710
     49 H21        -1.7920   -2.5630    0.9640 hn        1 MOL      0.130635
     50 H22        -2.7500   -0.7720    0.0600 h1        1 MOL      0.045291
     51 H23        -0.9850    0.8840   -0.7070 hc        1 MOL      0.089237
     52 H24         0.1080   -0.5440   -0.6620 hc        1 MOL      0.089237
     53 N5         -3.8610   -1.3820   -2.2610 n         1 MOL     -0.215130
     54 C17        -4.7910   -1.6740   -1.2100 c3        1 MOL     -0.085802
     55 C18        -6.1820   -1.8640   -1.8070 c         1 MOL      0.511692
     56 O9         -6.3640   -1.8830   -3.0560 o         1 MOL     -0.548446
     57 H25        -4.3070   -1.3600   -3.1670 hn        1 MOL      0.249949
     58 H26        -4.9090   -0.7960   -0.5770 h1        1 MOL      0.076710
     59 H27        -4.5180   -2.5790   -0.6520 h1        1 MOL      0.076710
     60 N6         -7.2730   -1.9820   -0.9910 n         1 MOL     -0.461692
     61 C19        -7.2870   -1.7670    0.4370 c3        1 MOL      0.151404
     62 C20        -7.5910   -0.2520    0.6880 c         1 MOL      0.513623
     63 O10        -7.9400    0.4730   -0.2120 o         1 MOL     -0.475979
     64 C21        -8.3900   -2.6040    1.1320 c3        1 MOL     -0.237251
     65 C22        -9.7030   -2.1810    0.5890 c         1 MOL      0.757296
     66 O11        -9.9660   -2.6080   -0.5620 o         1 MOL     -0.704594
     67 O12       -10.4120   -1.4760    1.2920 o         1 MOL     -0.704594
     68 H28        -8.1700   -2.1000   -1.4380 hn        1 MOL      0.314383
     69 H29        -6.3420   -1.9560    0.9230 h1        1 MOL     -0.018522
     70 H30        -8.3780   -2.4560    2.2090 hc        1 MOL      0.019662
     71 H31        -8.0470   -3.6350    0.9650 hc        1 MOL      0.019662
     72 N7         -7.4640    0.2830    1.9590 n         1 MOL     -0.299319
     73 C23        -7.6520    1.6970    2.3950 c3        1 MOL     -0.219634
     74 C24        -6.5820    2.7770    2.0240 c         1 MOL      0.561647
     75 O13        -6.8400    3.9110    2.2660 o         1 MOL     -0.560346
     76 H32        -7.2500   -0.4330    2.6440 hn        1 MOL      0.206683
     77 H33        -7.7720    1.6830    3.4780 h1        1 MOL      0.132660
     78 H34        -8.6550    1.9480    2.0800 h1        1 MOL      0.132660
     79 N8         -5.4050    2.4420    1.5010 n         1 MOL     -0.309826
     80 C25        -4.3780    3.3640    1.0120 c3        1 MOL      0.243732
     81 C26        -3.7630    2.7940   -0.2960 c         1 MOL      0.249020
     82 O14        -3.9410    1.6010   -0.6020 o         1 MOL     -0.325944
     83 C27        -3.2820    3.5350    2.0740 c3        1 MOL      0.286025
     84 C28        -3.7130    3.9580    3.4760 c3        1 MOL     -0.342391
     85 O15        -2.4750    4.4860    1.5790 oh        1 MOL     -0.615168
     86 H35        -5.2690    1.4790    1.2310 hn        1 MOL      0.069839
     87 H36        -4.8200    4.3030    0.6990 h1        1 MOL      0.058222
     88 H37        -2.8710    2.5430    2.2600 h1        1 MOL      0.062144
     89 H38        -1.6410    4.2490    2.0010 ho        1 MOL      0.407496
     90 H39        -2.9520    3.7050    4.2210 hc        1 MOL      0.078513
     91 H40        -3.9030    5.0260    3.5650 hc        1 MOL      0.078513
     92 H41        -4.6870    3.5800    3.7770 hc        1 MOL      0.078513
     93 N9         -3.1120    3.6000   -1.1350 n         1 MOL     -0.189918
     94 C29        -2.3510    3.1220   -2.3320 c3        1 MOL     -0.576416
     95 C30        -0.8900    3.6060   -2.4610 c         1 MOL      0.655266
     96 O16        -0.1650    3.2290   -3.3920 o         1 MOL     -0.568607
     97 C31        -3.1860    3.3900   -3.6610 c3        1 MOL      0.212221
     98 C32        -3.4470    4.9050   -3.9920 c3        1 MOL     -0.016485
     99 C33        -4.5890    2.6740   -3.5430 c3        1 MOL     -0.334461
    100 C34        -3.8320    5.2470   -5.4290 c3        1 MOL     -0.098031
    101 H42        -3.1080    4.5830   -0.8930 hn        1 MOL      0.232198
    102 H43        -2.0570    2.0720   -2.3280 h1        1 MOL      0.324454
    103 H44        -2.6440    2.9710   -4.5100 hc        1 MOL      0.023656
    104 H45        -2.5260    5.4770   -3.8290 hc        1 MOL      0.014644
    105 H46        -4.2110    5.3350   -3.3480 hc        1 MOL      0.014644
    106 H47        -5.1700    2.8580   -4.4480 hc        1 MOL      0.101963
    107 H48        -4.3910    1.6150   -3.4080 hc        1 MOL      0.101963
    108 H49        -5.1410    3.0320   -2.6760 hc        1 MOL      0.101963
    109 H50        -3.2750    4.5960   -6.0970 hc        1 MOL      0.022958
    110 H51        -4.8620    4.9160   -5.5520 hc        1 MOL      0.022958
    111 H52        -3.7760    6.2930   -5.7410 hc        1 MOL      0.022958
    112 N10        -0.4310    4.3510   -1.4850 n         1 MOL     -0.228043
    113 C35         0.9310    4.8960   -1.5340 c3        1 MOL     -0.412279
    114 C36         1.9010    3.7650   -1.2190 c         1 MOL      0.573086
    115 O17         1.6290    2.8920   -0.3580 o         1 MOL     -0.464217
    116 C37         1.1400    6.0400   -0.5100 c3        1 MOL      0.612429
    117 C38         0.6960    5.7510    0.9120 c3        1 MOL     -0.477652
    118 O18         0.4740    7.1890   -0.9400 oh        1 MOL     -0.674562
    119 H53        -1.0390    4.4520   -0.6930 hn        1 MOL      0.178327
    120 H54         1.2280    5.3920   -2.4610 h1        1 MOL      0.144243
    121 H55         2.2160    6.1590   -0.4810 h1        1 MOL     -0.013950
    122 H56        -0.4730    7.0530   -0.8240 ho        1 MOL      0.407863
    123 H57        -0.3830    5.5920    0.9380 hc        1 MOL      0.114247
    124 H58         1.2120    4.8760    1.3180 hc        1 MOL      0.114247
    125 H59         0.8710    6.6120    1.5730 hc        1 MOL      0.114247
    126 N11         3.0270    3.8180   -1.8820 n         1 MOL     -0.258875
    127 C39         4.1450    2.9420   -1.6800 c3        1 MOL     -0.333502
    128 C40         4.6860    2.9090   -0.2300 c         1 MOL      0.564243
    129 O19         4.6880    3.9930    0.3930 o         1 MOL     -0.515897
    130 C41         5.2990    3.2340   -2.5750 c3        1 MOL      0.270324
    131 C42         6.0630    4.5740   -2.3930 c3        1 MOL     -0.321915
    132 O20         4.7610    3.4390   -3.9250 oh        1 MOL     -0.572336
    133 H60         3.1820    4.5500   -2.5580 hn        1 MOL      0.281944
    134 H61         3.7630    1.9300   -1.8110 h1        1 MOL      0.154045
    135 H62         6.0800    2.4780   -2.5150 h1        1 MOL      0.061238
    136 H63         4.5230    2.5780   -4.2600 ho        1 MOL      0.391691
    137 H64         6.8790    4.5520   -3.1140 hc        1 MOL      0.099007
    138 H65         5.3850    5.4220   -2.5700 hc        1 MOL      0.099007
    139 H66         6.4490    4.6810   -1.3830 hc        1 MOL      0.099007
    140 N12         5.1080    1.7130    0.2010 n         1 MOL     -0.468244
    141 C43         5.9340    1.5370    1.3730 c3        1 MOL      0.119168
    142 C44         5.4390    0.3660    2.2550 c         1 MOL      0.558635
    143 O21         5.6760    0.3490    3.4570 o         1 MOL     -0.579668
    144 C45         7.4130    1.2520    1.0300 c3        1 MOL     -0.138319
    145 C46         8.2190    2.3820    0.4850 c3        1 MOL     -0.053187
    146 C47         8.5840    3.3880    1.6040 c3        1 MOL     -0.036775
    147 C48         9.6590    4.4710    1.1800 c3        1 MOL      0.090386
    148 N13         9.9580    5.4830    2.2700 n4        1 MOL     -0.257613
    149 H67         4.9500    0.8860   -0.3590 hn        1 MOL      0.305131
    150 H68         5.9860    2.4230    2.0060 h1        1 MOL      0.045394
    151 H69         7.4860    0.3540    0.4210 hc        1 MOL      0.060701
    152 H70         7.8690    1.1660    2.0100 hc        1 MOL      0.060701
    153 H71         7.6320    2.8580   -0.3050 hc        1 MOL      0.058509
    154 H72         9.1580    1.9770    0.0980 hc        1 MOL      0.058509
    155 H73         9.0540    2.8150    2.4050 hc        1 MOL      0.044087
    156 H74         7.7330    3.9530    1.9940 hc        1 MOL      0.044087
    157 H75         9.2880    4.8700    0.2360 hx        1 MOL      0.039341
    158 H76        10.5350    3.8620    0.9380 hx        1 MOL      0.039341
    159 H77         9.2460    5.5190    2.9900 hn        1 MOL      0.264079
    160 H78        10.8610    5.3450    2.7060 hn        1 MOL      0.264079
    161 H79        10.0600    6.3460    1.7520 hn        1 MOL      0.264079
    162 N14         4.5390   -0.5210    1.7290 n         1 MOL     -0.367868
    163 C49         3.8970   -1.6080    2.4330 c3        1 MOL      0.090142
    164 C50         5.0060   -2.7020    2.7340 c         1 MOL      0.243930
    165 O22         5.4820   -3.4210    1.8420 o         1 MOL     -0.457314
    166 C51         2.7730   -2.2280    1.5350 c3        1 MOL      0.109478
    167 C52         2.1020   -3.4890    2.0900 c3        1 MOL     -0.152048
    168 C53         1.4090   -3.2710    3.4540 c         1 MOL      0.744154
    169 O23         1.9730   -3.6230    4.5230 o         1 MOL     -0.794981
    170 O24         0.3560   -2.5850    3.4460 o         1 MOL     -0.794981
    171 H80         4.3690   -0.4860    0.7420 hn        1 MOL      0.230979
    172 H81         3.4510   -1.1740    3.3220 h1        1 MOL      0.039202
    173 H82         3.0540   -2.4750    0.5090 hc        1 MOL     -0.012783
    174 H83         2.0360   -1.4310    1.5110 hc        1 MOL     -0.012783
    175 H84         2.8130   -4.3100    2.1630 hc        1 MOL      0.081823
    176 H85         1.4110   -3.8920    1.3530 hc        1 MOL      0.081823
    177 N15         5.3730   -2.8850    3.9870 n         1 MOL     -0.034388
    178 C54         6.4260   -3.8260    4.4470 c3        1 MOL     -0.378452
    179 H86         6.6440   -3.6410    5.4990 h1        1 MOL      0.138280
    180 H87         6.0760   -4.8510    4.3240 h1        1 MOL      0.138280
    181 H88         7.3300   -3.6760    3.8580 h1        1 MOL      0.138280
    182 H89         5.0350   -2.2140    4.6580 hn        1 MOL      0.191173
    183 Ca1        -1.5880   -1.4000    4.5060 Ca        1 MOL      1.850444
    184 O25        -2.1820   -1.0860    7.2560 oh        1 MOL     -0.900352
    185 H90        -2.0240   -1.8520    7.8110 ho        1 MOL      0.436961
    186 H91        -2.3310   -0.3700    7.8670 ho        1 MOL      0.436961
    187 O26         0.4990   -1.7750    6.3060 oh        1 MOL     -0.900352
    188 H92         1.1030   -2.4290    5.9560 ho        1 MOL      0.436961
    189 H93         0.8850   -1.5170    7.1420 ho        1 MOL      0.436961
    190 O27        -2.9920    0.8120    4.9910 oh        1 MOL     -0.900352
    191 H94        -3.8800    0.7910    5.3360 ho        1 MOL      0.436961
    192 H95        -2.5220    1.4040    5.5800 ho        1 MOL      0.436961
    193 O28         0.2800    0.6660    4.3660 oh        1 MOL     -0.900352
    194 H96         1.2030    0.5600    4.6200 ho        1 MOL      0.436961
    195 H97         0.3090    0.8240    3.4230 ho        1 MOL      0.436961
    196 O29        -1.4190   -3.8800    5.7450 oh        1 MOL     -0.900352
    197 H98        -1.6850   -4.4840    6.4430 ho        1 MOL      0.436961
    198 H99        -0.5710   -4.2100    5.4420 ho        1 MOL      0.436961
@<TRIPOS>BOND
     1    1    2 1   
     2    1    4 1   
     3    1    5 1   
     4    1    6 1   
     5    2    3 2   
     6    2    7 1   
     7    7    8 1   
     8    7   15 1   
     9    8    9 1   
    10    8   11 1   
    11    8   16 1   
    12    9   10 2   
    13    9   19 1   
    14   11   12 1   
    15   11   17 1   
    16   11   18 1   
    17   12   13 1   
    18   12   14 1   
    19   19   20 1   
    20   19   28 1   
    21   20   21 1   
    22   20   23 1   
    23   20   29 1   
    24   21   22 2   
    25   21   41 1   
    26   23   24 1   
    27   23   30 1   
    28   23   31 1   
    29   24   25 1   
    30   24   32 1   
    31   24   33 1   
    32   25   26 1   
    33   25   34 1   
    34   25   35 1   
    35   26   27 1   
    36   26   36 1   
    37   26   37 1   
    38   27   38 1   
    39   27   39 1   
    40   27   40 1   
    41   41   42 1   
    42   41   49 1   
    43   42   43 1   
    44   42   45 1   
    45   42   50 1   
    46   43   44 2   
    47   43   53 1   
    48   45   46 1   
    49   45   51 1   
    50   45   52 1   
    51   46   47 1   
    52   46   48 1   
    53   53   54 1   
    54   53   57 1   
    55   54   55 1   
    56   54   58 1   
    57   54   59 1   
    58   55   56 2   
    59   55   60 1   
    60   60   61 1   
    61   60   68 1   
    62   61   62 1   
    63   61   64 1   
    64   61   69 1   
    65   62   63 2   
    66   62   72 1   
    67   64   65 1   
    68   64   70 1   
    69   64   71 1   
    70   65   66 1   
    71   65   67 1   
    72   72   73 1   
    73   72   76 1   
    74   73   74 1   
    75   73   77 1   
    76   73   78 1   
    77   74   75 2   
    78   74   79 1   
    79   79   80 1   
    80   79   86 1   
    81   80   81 1   
    82   80   83 1   
    83   80   87 1   
    84   81   82 2   
    85   81   93 1   
    86   83   84 1   
    87   83   85 1   
    88   83   88 1   
    89   84   90 1   
    90   84   91 1   
    91   84   92 1   
    92   85   89 1   
    93   93   94 1   
    94   93  101 1   
    95   94   95 1   
    96   94   97 1   
    97   94  102 1   
    98   95   96 2   
    99   95  112 1   
   100   97   98 1   
   101   97   99 1   
   102   97  103 1   
   103   98  100 1   
   104   98  104 1   
   105   98  105 1   
   106   99  106 1   
   107   99  107 1   
   108   99  108 1   
   109  100  109 1   
   110  100  110 1   
   111  100  111 1   
   112  112  113 1   
   113  112  119 1   
   114  113  114 1   
   115  113  116 1   
   116  113  120 1   
   117  114  115 2   
   118  114  126 1   
   119  116  117 1   
   120  116  118 1   
   121  116  121 1   
   122  117  123 1   
   123  117  124 1   
   124  117  125 1   
   125  118  122 1   
   126  126  127 1   
   127  126  133 1   
   128  127  128 1   
   129  127  130 1   
   130  127  134 1   
   131  128  129 2   
   132  128  140 1   
   133  130  131 1   
   134  130  132 1   
   135  130  135 1   
   136  131  137 1   
   137  131  138 1   
   138  131  139 1   
   139  132  136 1   
   140  140  141 1   
   141  140  149 1   
   142  141  142 1   
   143  141  144 1   
   144  141  150 1   
   145  142  143 2   
   146  142  162 1   
   147  144  145 1   
   148  144  151 1   
   149  144  152 1   
   150  145  146 1   
   151  145  153 1   
   152  145  154 1   
   153  146  147 1   
   154  146  155 1   
   155  146  156 1   
   156  147  148 1   
   157  147  157 1   
   158  147  158 1   
   159  148  159 1   
   160  148  160 1   
   161  148  161 1   
   162  162  163 1   
   163  162  171 1   
   164  163  164 1   
   165  163  166 1   
   166  163  172 1   
   167  164  165 2   
   168  164  177 1   
   169  166  167 1   
   170  166  173 1   
   171  166  174 1   
   172  167  168 1   
   173  167  175 1   
   174  167  176 1   
   175  168  169 1   
   176  168  170 1   
   177  177  178 1   
   178  177  182 1   
   179  178  179 1   
   180  178  180 1   
   181  178  181 1   
   182  184  185 1   
   183  184  186 1   
   184  187  188 1   
   185  187  189 1   
   186  190  191 1   
   187  190  192 1   
   188  193  194 1   
   189  193  195 1   
   190  196  197 1   
   191  196  198 1   
@<TRIPOS>SUBSTRUCTURE
     1 MOL         1 TEMP              0 ****  ****    0 ROOT
