@<TRIPOS>MOLECULE
MOL
  185   180     1     0     0
SMALL
resp


@<TRIPOS>ATOM
      1 C1          0.5300   -5.8890    4.9130 c3        1 MOL     -0.414128
      2 C2          0.4120   -5.1380    3.6100 c         1 MOL      0.783396
      3 O1         -0.4360   -5.3160    2.7760 o         1 MOL     -0.589530
      4 H1          1.3590   -5.4830    5.4920 hc        1 MOL      0.108111
      5 H2         -0.3960   -5.7830    5.4790 hc        1 MOL      0.108111
      6 H3          0.7120   -6.9450    4.7100 hc        1 MOL      0.108111
      7 N1          1.3980   -4.2600    3.4540 n         1 MOL     -0.669429
      8 C3          1.5560   -3.5330    2.2710 c3        1 MOL      0.133158
      9 C4          1.9840   -4.4230    1.0640 c         1 MOL      0.561984
     10 O2          3.1220   -4.9530    1.0860 o         1 MOL     -0.531485
     11 C5          2.5470   -2.3480    2.6300 c3        1 MOL      0.050037
     12 C6          2.7060   -1.3960    1.5010 c         1 MOL      0.248454
     13 O3          3.2280   -0.2720    1.6330 o         1 MOL     -0.562393
     14 O4          2.2920   -1.7590    0.3770 o         1 MOL     -0.562393
     15 H4          2.1820   -4.3160    4.0890 hn        1 MOL      0.335813
     16 H5          0.6370   -3.0360    1.9400 h1        1 MOL      0.049305
     17 H6          3.5320   -2.7520    2.8740 hc        1 MOL      0.052289
     18 H7          2.2810   -1.8080    3.5420 hc        1 MOL      0.052289
     19 N2          1.2090   -4.4370   -0.0290 n         1 MOL     -0.391273
     20 C7          1.3910   -5.1890   -1.2150 c3        1 MOL      0.081100
     21 C8          2.7960   -5.0080   -1.8440 c         1 MOL      0.458946
     22 O5          3.2090   -5.8960   -2.5610 o         1 MOL     -0.546824
     23 C9          0.3510   -4.7000   -2.1920 c3        1 MOL     -0.146991
     24 C10         0.5040   -3.3830   -2.9970 c3        1 MOL     -0.013929
     25 C11        -0.9330   -3.0860   -3.5270 c3        1 MOL      0.014111
     26 C12        -0.9690   -1.7290   -4.1460 c3        1 MOL      0.186099
     27 N3         -2.2230   -1.3850   -4.8880 n4        1 MOL     -0.519282
     28 H8          0.3540   -3.9010    0.0390 hn        1 MOL      0.204385
     29 H9          1.3080   -6.2680   -1.0550 h1        1 MOL      0.087011
     30 H10        -0.6270   -4.6850   -1.7290 hc        1 MOL      0.064467
     31 H11         0.2810   -5.5830   -2.8260 hc        1 MOL      0.064467
     32 H12         1.2100   -3.3150   -3.8270 hc        1 MOL      0.038463
     33 H13         0.6580   -2.4860   -2.3990 hc        1 MOL      0.038463
     34 H14        -1.6350   -3.0640   -2.6890 hc        1 MOL     -0.005284
     35 H15        -1.3080   -3.8230   -4.2320 hc        1 MOL     -0.005284
     36 H16        -0.0750   -1.6350   -4.7540 hx        1 MOL      0.026142
     37 H17        -0.8440   -0.9950   -3.3430 hx        1 MOL      0.026142
     38 H18        -2.3680   -2.0710   -5.6190 hn        1 MOL      0.351757
     39 H19        -2.9810   -1.4270   -4.2390 hn        1 MOL      0.351757
     40 H20        -2.1940   -0.5090   -5.3900 hn        1 MOL      0.351757
     41 N4          3.4510   -3.8610   -1.6250 n         1 MOL     -0.093688
     42 C13         4.7910   -3.5580   -2.1710 c3        1 MOL     -0.042765
     43 C14         5.7260   -3.0810   -1.1090 c         1 MOL      0.433939
     44 O6          6.8890   -3.0680   -1.2580 o         1 MOL     -0.532267
     45 C15         4.7920   -2.5970   -3.3660 c3        1 MOL     -0.161252
     46 C16         3.9800   -1.3280   -3.1270 c         1 MOL      0.766007
     47 O7          3.8950   -0.7940   -2.0180 o         1 MOL     -0.696762
     48 O8          3.4400   -0.8260   -4.1400 o         1 MOL     -0.696762
     49 H21         2.9260   -3.1520   -1.1230 hn        1 MOL      0.016370
     50 H22         5.2150   -4.4980   -2.5360 h1        1 MOL      0.130286
     51 H23         4.3640   -3.2070   -4.1480 hc        1 MOL      0.061098
     52 H24         5.7820   -2.3520   -3.7320 hc        1 MOL      0.061098
     53 N5          5.1700   -2.5370    0.0010 n         1 MOL      0.024835
     54 C17         6.0280   -1.9520    1.0900 c3        1 MOL     -0.267500
     55 C18         6.6990   -0.6220    0.6900 c         1 MOL      0.466544
     56 O9          7.5760   -0.1210    1.4220 o         1 MOL     -0.567903
     57 H25         4.1700   -2.4260    0.1350 hn        1 MOL     -0.085028
     58 H26         6.7890   -2.6610    1.4080 h1        1 MOL      0.141500
     59 H27         5.3170   -1.7190    1.8900 h1        1 MOL      0.141500
     60 N6          6.2520   -0.0280   -0.3690 n         1 MOL     -0.046437
     61 C19         6.6350    1.3190   -0.7820 c3        1 MOL      0.102480
     62 C20         5.4230    2.2990   -0.6450 c         1 MOL      0.295306
     63 O10         4.2680    1.8860   -0.7640 o         1 MOL     -0.401590
     64 C21         7.2120    1.2070   -2.1900 c3        1 MOL     -0.069369
     65 C22         8.4740    0.4630   -2.3040 c         1 MOL      0.590226
     66 N7          8.5590   -0.7920   -1.9980 n         1 MOL     -0.783594
     67 O11         9.5040    1.1060   -2.6270 o         1 MOL     -0.586731
     68 H28         5.4050   -0.3950   -0.7620 hn        1 MOL      0.050585
     69 H29         7.4160    1.7670   -0.1630 h1        1 MOL      0.026310
     70 H30         7.4330    2.2030   -2.5640 hc        1 MOL      0.024409
     71 H31         6.4730    0.8090   -2.8850 hc        1 MOL      0.024409
     72 H32         7.7720   -1.3100   -1.6460 hn        1 MOL      0.379151
     73 H33         9.4660   -1.2200   -2.0070 hn        1 MOL      0.379151
     74 N8          5.7470    3.5790   -0.5190 n         1 MOL     -0.230842
     75 C23         4.8000    4.6610   -0.6570 c3        1 MOL     -0.269851
     76 C24         3.7020    4.8300    0.4410 c         1 MOL      0.660616
     77 O12         4.0620    4.8970    1.6590 o         1 MOL     -0.514525
     78 H34         6.7380    3.7360   -0.4190 hn        1 MOL      0.302635
     79 H35         4.2670    4.5190   -1.5980 h1        1 MOL      0.122619
     80 H36         5.4330    5.5560   -0.7180 h1        1 MOL      0.122619
     81 N9          2.4030    4.9230    0.0630 n         1 MOL     -0.614053
     82 C25         1.4120    4.6320    1.0780 c3        1 MOL      0.304250
     83 C26         1.2900    3.2040    1.6450 c         1 MOL      0.226449
     84 O13         2.0310    2.3480    1.1910 o         1 MOL     -0.383010
     85 C27         0.0010    4.9060    0.4170 c3        1 MOL     -0.027034
     86 C28        -0.3240    6.3470    0.0360 ca        1 MOL      0.079725
     87 C29        -0.2310    7.4140    0.9450 ca        1 MOL     -0.239529
     88 C30        -0.6630    6.5970   -1.2930 ca        1 MOL     -0.239529
     89 C31        -0.3840    8.7300    0.4580 ca        1 MOL     -0.158340
     90 C32        -0.8250    7.9030   -1.7650 ca        1 MOL     -0.158340
     91 C33        -0.6030    8.9820   -0.9220 ca        1 MOL      0.253274
     92 O14        -0.7300   10.2250   -1.4020 oh        1 MOL     -0.431773
     93 H37         2.1780    5.0330   -0.9160 hn        1 MOL      0.287814
     94 H38         1.4700    5.3500    1.9010 h1        1 MOL      0.046684
     95 H39        -0.7290    4.6310    1.1790 hc        1 MOL     -0.003180
     96 H40        -0.1500    4.2310   -0.4280 hc        1 MOL     -0.003180
     97 H41        -0.0180    7.2830    1.9950 ha        1 MOL      0.147057
     98 H42        -0.8580    5.7060   -1.8690 ha        1 MOL      0.147057
     99 H43        -0.2520    9.5460    1.1490 ha        1 MOL      0.135384
    100 H44        -1.0650    8.0270   -2.8070 ha        1 MOL      0.135384
    101 H45        -0.7380   10.2330   -2.3690 ho        1 MOL      0.347646
    102 N10         0.4890    3.0330    2.7110 n         1 MOL     -0.462095
    103 C34         0.4590    1.7410    3.4670 c3        1 MOL      0.025270
    104 C35        -0.1630    0.6260    2.6460 c         1 MOL      0.416294
    105 O15         0.2470    0.3490    1.5120 o         1 MOL     -0.348899
    106 C36         1.7590    1.3820    4.2760 c3        1 MOL      0.360219
    107 C37         1.4130    0.3410    5.4170 c3        1 MOL      0.093042
    108 C38         2.3940    2.6300    4.8630 c3        1 MOL     -0.045789
    109 C39         2.5350   -0.0130    6.3160 c3        1 MOL     -0.134186
    110 H46         0.1100    3.8410    3.1980 hn        1 MOL      0.316006
    111 H47        -0.3160    1.9930    4.1930 h1        1 MOL      0.008550
    112 H48         2.4250    0.9220    3.5540 hc        1 MOL     -0.035540
    113 H49         0.9410   -0.5880    5.0710 hc        1 MOL     -0.071000
    114 H50         0.6770    0.8470    6.0390 hc        1 MOL     -0.071000
    115 H51         3.2570    2.2100    5.3700 hc        1 MOL      0.000131
    116 H52         2.7660    3.3690    4.1560 hc        1 MOL      0.000131
    117 H53         1.7450    3.1880    5.5400 hc        1 MOL      0.000131
    118 H54         2.8200    0.8630    6.9040 hc        1 MOL      0.033761
    119 H55         2.2440   -0.7510    7.0670 hc        1 MOL      0.033761
    120 H56         3.3890   -0.4440    5.7920 hc        1 MOL      0.033761
    121 N11        -1.1830   -0.0080    3.2420 n         1 MOL     -0.498450
    122 C40        -1.8470   -1.1430    2.6210 c3        1 MOL      0.122767
    123 C41        -3.0180   -0.8750    1.6670 c         1 MOL      0.493413
    124 O16        -3.8040   -1.7760    1.4570 o         1 MOL     -0.543151
    125 C42        -2.1620   -2.1810    3.7410 c3        1 MOL      0.134747
    126 O17        -1.2260   -2.4210    4.7450 oh        1 MOL     -0.558506
    127 H57        -1.2980    0.1850    4.2330 hn        1 MOL      0.292754
    128 H58        -1.0770   -1.6100    2.0160 h1        1 MOL      0.095844
    129 H59        -2.3120   -3.1370    3.2390 h1        1 MOL      0.037309
    130 H60        -3.0240   -1.9040    4.3440 h1        1 MOL      0.037309
    131 H61        -1.6000   -2.3250    5.6240 ho        1 MOL      0.409666
    132 N12        -3.2610    0.2990    1.1170 n         1 MOL     -0.497052
    133 C43        -4.2800    0.4820    0.0460 c3        1 MOL      0.398194
    134 C44        -4.0900   -0.3390   -1.2190 c         1 MOL      0.336872
    135 O18        -3.1030   -0.2500   -2.0010 o         1 MOL     -0.541624
    136 C45        -4.5400    1.9790   -0.1720 c3        1 MOL     -0.222525
    137 H62        -2.6530    1.0970    1.2290 hn        1 MOL      0.245218
    138 H63        -5.2100    0.1210    0.4740 h1        1 MOL      0.025826
    139 H64        -5.5350    2.0030   -0.6020 hc        1 MOL      0.061943
    140 H65        -4.6380    2.4830    0.7940 hc        1 MOL      0.061943
    141 H66        -3.7800    2.3570   -0.8510 hc        1 MOL      0.061943
    142 N13        -4.9910   -1.3010   -1.5290 n         1 MOL     -0.401582
    143 C46        -6.4080   -1.5090   -1.0680 c3        1 MOL      0.254199
    144 C47        -7.4420   -0.6320   -1.7390 c         1 MOL      0.529952
    145 O19        -7.1950   -0.1830   -2.8450 o         1 MOL     -0.554973
    146 C48        -6.6910   -2.9800   -1.2830 c3        1 MOL     -0.287160
    147 H67        -4.8220   -1.7180   -2.4390 hn        1 MOL      0.253745
    148 H68        -6.4130   -1.3520    0.0110 h1        1 MOL      0.072642
    149 H69        -7.2150   -3.4700   -0.4580 hc        1 MOL      0.094854
    150 H70        -7.2850   -3.1350   -2.1870 hc        1 MOL      0.094854
    151 H71        -5.7540   -3.5370   -1.3470 hc        1 MOL      0.094854
    152 N14        -8.6550   -0.4860   -1.1480 n         1 MOL     -0.555056
    153 C49        -9.2580   -1.0310    0.0830 c3        1 MOL     -0.200892
    154 C50        -9.3260   -0.0120    1.2280 c         1 MOL      0.448463
    155 O20        -9.2600   -0.4460    2.3550 o         1 MOL     -0.509641
    156 C51       -10.6890   -1.6320   -0.0970 c3        1 MOL      0.332912
    157 C52       -11.8250   -0.6520   -0.4680 c3        1 MOL     -0.408624
    158 C53       -11.6740   -0.3040   -1.9520 c         1 MOL      0.794370
    159 O21       -11.9230   -1.2220   -2.8110 o         1 MOL     -0.719817
    160 O22       -11.2730    0.8230   -2.2760 o         1 MOL     -0.719817
    161 H72        -9.3350   -0.0630   -1.7770 hn        1 MOL      0.353361
    162 H73        -8.6760   -1.8940    0.3880 h1        1 MOL      0.082788
    163 H74       -10.9930   -2.2950    0.7220 hc        1 MOL     -0.024117
    164 H75       -10.5810   -2.4320   -0.8300 hc        1 MOL     -0.024117
    165 H76       -11.7000    0.2750    0.0810 hc        1 MOL      0.073024
    166 H77       -12.7770   -1.1140   -0.2210 hc        1 MOL      0.073024
    167 N15        -9.4700    1.3170    0.9110 n         1 MOL     -0.207024
    168 C54        -9.3950    2.3240    1.9160 c3        1 MOL     -0.208067
    169 H78        -8.3630    2.6610    2.0170 h1        1 MOL      0.093935
    170 H79       -10.0250    3.1670    1.6340 h1        1 MOL      0.093935
    171 H80        -9.7380    1.9150    2.8670 h1        1 MOL      0.093935
    172 H81        -9.7240    1.5510   -0.0420 hn        1 MOL      0.221672
    173 Ca1         1.9040    0.4500   -0.7650 Ca        1 MOL      1.741452
    174 O23         2.0370    2.6860   -2.4120 oh        1 MOL     -0.803938
    175 H82         1.9280    3.6310   -2.4090 ho        1 MOL      0.378025
    176 H83         1.2770    2.3540   -2.8920 ho        1 MOL      0.378025
    177 O24        -0.5790    1.4510   -1.4580 oh        1 MOL     -0.803938
    178 H84        -1.3520    1.1680   -0.9720 ho        1 MOL      0.378025
    179 H85        -0.7820    1.2530   -2.3740 ho        1 MOL      0.378025
    180 O25         1.2950    0.2190   -3.4920 oh        1 MOL     -0.803938
    181 H86         0.7580    0.3220   -4.2770 ho        1 MOL      0.378025
    182 H87         2.1420   -0.0630   -3.8190 ho        1 MOL      0.378025
    183 O26        -0.7630   -1.4480   -0.8940 oh        1 MOL     -0.803938
    184 H88        -1.6460   -1.2440   -1.1870 ho        1 MOL      0.378025
    185 H89        -0.8650   -2.2320   -0.3580 ho        1 MOL      0.378025
@<TRIPOS>BOND
     1    1    2 1   
     2    1    4 1   
     3    1    5 1   
     4    1    6 1   
     5    2    3 2   
     6    2    7 1   
     7    7    8 1   
     8    7   15 1   
     9    8    9 1   
    10    8   11 1   
    11    8   16 1   
    12    9   10 2   
    13    9   19 1   
    14   11   12 1   
    15   11   17 1   
    16   11   18 1   
    17   12   13 1   
    18   12   14 1   
    19   19   20 1   
    20   19   28 1   
    21   20   21 1   
    22   20   23 1   
    23   20   29 1   
    24   21   22 2   
    25   21   41 1   
    26   23   24 1   
    27   23   30 1   
    28   23   31 1   
    29   24   25 1   
    30   24   32 1   
    31   24   33 1   
    32   25   26 1   
    33   25   34 1   
    34   25   35 1   
    35   26   27 1   
    36   26   36 1   
    37   26   37 1   
    38   27   38 1   
    39   27   39 1   
    40   27   40 1   
    41   41   42 1   
    42   41   49 1   
    43   42   43 1   
    44   42   45 1   
    45   42   50 1   
    46   43   44 2   
    47   43   53 1   
    48   45   46 1   
    49   45   51 1   
    50   45   52 1   
    51   46   47 1   
    52   46   48 1   
    53   53   54 1   
    54   53   57 1   
    55   54   55 1   
    56   54   58 1   
    57   54   59 1   
    58   55   56 2   
    59   55   60 1   
    60   60   61 1   
    61   60   68 1   
    62   61   62 1   
    63   61   64 1   
    64   61   69 1   
    65   62   63 2   
    66   62   74 1   
    67   64   65 1   
    68   64   70 1   
    69   64   71 1   
    70   65   66 1   
    71   65   67 2   
    72   66   72 1   
    73   66   73 1   
    74   74   75 1   
    75   74   78 1   
    76   75   76 1   
    77   75   79 1   
    78   75   80 1   
    79   76   77 2   
    80   76   81 1   
    81   81   82 1   
    82   81   93 1   
    83   82   83 1   
    84   82   85 1   
    85   82   94 1   
    86   83   84 2   
    87   83  102 1   
    88   85   86 1   
    89   85   95 1   
    90   85   96 1   
    91   86   87 ar  
    92   86   88 ar  
    93   87   89 ar  
    94   87   97 1   
    95   88   90 ar  
    96   88   98 1   
    97   89   91 ar  
    98   89   99 1   
    99   90   91 ar  
   100   90  100 1   
   101   91   92 1   
   102   92  101 1   
   103  102  103 1   
   104  102  110 1   
   105  103  104 1   
   106  103  106 1   
   107  103  111 1   
   108  104  105 2   
   109  104  121 1   
   110  106  107 1   
   111  106  108 1   
   112  106  112 1   
   113  107  109 1   
   114  107  113 1   
   115  107  114 1   
   116  108  115 1   
   117  108  116 1   
   118  108  117 1   
   119  109  118 1   
   120  109  119 1   
   121  109  120 1   
   122  121  122 1   
   123  121  127 1   
   124  122  123 1   
   125  122  125 1   
   126  122  128 1   
   127  123  124 2   
   128  123  132 1   
   129  125  126 1   
   130  125  129 1   
   131  125  130 1   
   132  126  131 1   
   133  132  133 1   
   134  132  137 1   
   135  133  134 1   
   136  133  136 1   
   137  133  138 1   
   138  134  135 2   
   139  134  142 1   
   140  136  139 1   
   141  136  140 1   
   142  136  141 1   
   143  142  143 1   
   144  142  147 1   
   145  143  144 1   
   146  143  146 1   
   147  143  148 1   
   148  144  145 2   
   149  144  152 1   
   150  146  149 1   
   151  146  150 1   
   152  146  151 1   
   153  152  153 1   
   154  152  161 1   
   155  153  154 1   
   156  153  156 1   
   157  153  162 1   
   158  154  155 2   
   159  154  167 1   
   160  156  157 1   
   161  156  163 1   
   162  156  164 1   
   163  157  158 1   
   164  157  165 1   
   165  157  166 1   
   166  158  159 1   
   167  158  160 1   
   168  167  168 1   
   169  167  172 1   
   170  168  169 1   
   171  168  170 1   
   172  168  171 1   
   173  174  175 1   
   174  174  176 1   
   175  177  178 1   
   176  177  179 1   
   177  180  181 1   
   178  180  182 1   
   179  183  184 1   
   180  183  185 1   
@<TRIPOS>SUBSTRUCTURE
     1 MOL         1 TEMP              0 ****  ****    0 ROOT
