@<TRIPOS>MOLECULE
MOL
  185   180     1     0     0
SMALL
resp


@<TRIPOS>ATOM
      1 C1          5.5710   -0.7160   -3.8620 c3        1 MOL     -0.456523
      2 C2          6.3530   -0.9770   -2.5520 c         1 MOL      0.580354
      3 O1          5.7680   -1.0040   -1.4640 o         1 MOL     -0.493562
      4 H1          4.5040   -0.8400   -3.6790 hc        1 MOL      0.122239
      5 H2          5.7650    0.3000   -4.2060 hc        1 MOL      0.122239
      6 H3          5.8920   -1.4250   -4.6250 hc        1 MOL      0.122239
      7 N1          7.6480   -1.1170   -2.5920 n         1 MOL     -0.531371
      8 C3          8.5880   -1.3280   -1.4860 c3        1 MOL      0.237640
      9 C4          8.3440   -0.5350   -0.1880 c         1 MOL      0.470129
     10 O2          8.3280   -0.9830    0.9190 o         1 MOL     -0.415330
     11 C5          8.5310   -2.8580   -1.2390 c3        1 MOL     -0.294704
     12 C6          9.7570   -3.4900   -0.4420 c         1 MOL      0.713838
     13 O3         10.8840   -3.4530   -0.9670 o         1 MOL     -0.658742
     14 O4          9.5450   -3.9350    0.6910 o         1 MOL     -0.658742
     15 H4          8.0700   -1.1100   -3.5130 hn        1 MOL      0.310747
     16 H5          9.5880   -1.0990   -1.8440 h1        1 MOL      0.002409
     17 H6          8.7460   -3.3400   -2.1950 hc        1 MOL      0.063109
     18 H7          7.6110   -3.0980   -0.7050 hc        1 MOL      0.063109
     19 N2          8.1230    0.7770   -0.3350 n         1 MOL     -0.516064
     20 C7          8.0800    1.7470    0.7320 c3        1 MOL      0.094079
     21 C8          6.7080    2.1790    1.2350 c         1 MOL      0.576136
     22 O5          6.5620    3.0320    2.0610 o         1 MOL     -0.572255
     23 C9          9.0490    2.9490    0.3770 c3        1 MOL     -0.112245
     24 C10        10.4740    2.6220   -0.0760 c3        1 MOL      0.033245
     25 C11        11.1600    3.6120   -1.0230 c3        1 MOL     -0.193037
     26 C12        11.2260    4.8430   -0.2150 c3        1 MOL      0.129208
     27 N3         11.8180    5.9170   -1.0610 n4        1 MOL     -0.281696
     28 H8          8.0440    1.1270   -1.2810 hn        1 MOL      0.230787
     29 H9          8.5300    1.3470    1.6350 h1        1 MOL      0.096483
     30 H10         9.0540    3.6060    1.2380 hc        1 MOL      0.026914
     31 H11         8.5250    3.4640   -0.4200 hc        1 MOL      0.026914
     32 H12        10.5440    1.6450   -0.5590 hc        1 MOL      0.055316
     33 H13        11.0850    2.4640    0.8150 hc        1 MOL      0.055316
     34 H14        10.4280    3.8720   -1.7870 hc        1 MOL      0.071816
     35 H15        12.0620    3.0530   -1.2700 hc        1 MOL      0.071816
     36 H16        11.8430    4.5440    0.6390 hx        1 MOL      0.065123
     37 H17        10.2590    5.1610    0.1470 hx        1 MOL      0.065123
     38 H18        12.8200    5.8500   -1.1670 hn        1 MOL      0.254109
     39 H19        11.4750    5.9410   -2.0110 hn        1 MOL      0.254109
     40 H20        11.6230    6.8080   -0.6150 hn        1 MOL      0.254109
     41 N4          5.7160    1.5150    0.6000 n         1 MOL     -0.512889
     42 C13         4.2410    1.7760    0.7530 c3        1 MOL      0.093237
     43 C14         3.8240    1.5850    2.1980 c         1 MOL      0.636024
     44 O6          4.0250    0.4540    2.7340 o         1 MOL     -0.517594
     45 C15         3.4230    0.9250   -0.1690 c3        1 MOL     -0.455361
     46 C16         1.9070    1.1770   -0.0880 c         1 MOL      0.878384
     47 O7          1.4490    2.3330    0.0450 o         1 MOL     -0.787448
     48 O8          1.0770    0.3270   -0.2160 o         1 MOL     -0.787448
     49 H21         5.9300    0.7930   -0.0780 hn        1 MOL      0.320681
     50 H22         4.0480    2.8110    0.4880 h1        1 MOL      0.024227
     51 H23         3.5970   -0.1010    0.1580 hc        1 MOL      0.154699
     52 H24         3.8460    1.1130   -1.1500 hc        1 MOL      0.154699
     53 N5          3.2290    2.5810    2.8370 n         1 MOL     -0.293661
     54 C17         2.9280    2.5130    4.2260 c3        1 MOL     -0.128745
     55 C18         1.7810    1.6700    4.6860 c         1 MOL      0.474215
     56 O9          1.8630    0.9450    5.7320 o         1 MOL     -0.505174
     57 H25         3.1020    3.4690    2.3620 hn        1 MOL      0.260169
     58 H26         2.6760    3.5400    4.4890 h1        1 MOL      0.097658
     59 H27         3.8420    2.2020    4.7410 h1        1 MOL      0.097658
     60 N6          0.6450    1.5160    3.8660 n         1 MOL     -0.368868
     61 C19        -0.3950    0.5090    4.1050 c3        1 MOL     -0.032624
     62 C20        -0.0830   -0.9290    3.6320 c         1 MOL      0.513698
     63 O10        -0.8010   -1.8410    3.7940 o         1 MOL     -0.552160
     64 C21        -1.7120    1.0650    3.5050 c3        1 MOL     -0.262546
     65 C22        -2.1730    0.3320    2.2140 c         1 MOL      0.494986
     66 N7         -3.2610   -0.3990    2.1920 n         1 MOL     -0.563547
     67 O11        -1.5280    0.4490    1.2000 o         1 MOL     -0.611557
     68 H28         0.5120    2.0400    3.0160 hn        1 MOL      0.278726
     69 H29        -0.4910    0.3530    5.1810 h1        1 MOL      0.120554
     70 H30        -1.5950    2.1350    3.3500 hc        1 MOL      0.103663
     71 H31        -2.5500    0.9930    4.1980 hc        1 MOL      0.103663
     72 H32        -3.8540   -0.4220    3.0030 hn        1 MOL      0.316330
     73 H33        -3.5910   -0.8040    1.3230 hn        1 MOL      0.316330
     74 N8          1.0870   -1.1250    3.0120 n         1 MOL     -0.070724
     75 C23         1.6820   -2.3940    2.5960 c3        1 MOL     -0.250861
     76 C24         0.9000   -3.1780    1.5190 c         1 MOL      0.509408
     77 O12         0.8900   -4.4350    1.5380 o         1 MOL     -0.539429
     78 H34         1.6590   -0.3090    2.8210 hn        1 MOL      0.083831
     79 H35         1.8570   -3.0570    3.4440 h1        1 MOL      0.140107
     80 H36         2.6580   -2.1730    2.1630 h1        1 MOL      0.140107
     81 N9          0.2630   -2.5480    0.5410 n         1 MOL     -0.398335
     82 C25        -0.3870   -3.0810   -0.6630 c3        1 MOL      0.176705
     83 C26        -1.6070   -2.3160   -1.0230 c         1 MOL      0.579048
     84 O13        -1.5480   -1.0850   -1.0900 o         1 MOL     -0.489034
     85 C27         0.5860   -3.0490   -1.8580 c3        1 MOL     -0.089326
     86 C28         1.8380   -3.8670   -1.4960 ca        1 MOL     -0.124304
     87 C29         1.8420   -5.3020   -1.6310 ca        1 MOL     -0.058664
     88 C30         3.0440   -3.2890   -1.0550 ca        1 MOL     -0.058664
     89 C31         2.9620   -6.0830   -1.3820 ca        1 MOL     -0.315286
     90 C32         4.2000   -4.0750   -0.7410 ca        1 MOL     -0.315286
     91 C33         4.0840   -5.4710   -0.7880 ca        1 MOL      0.456722
     92 O14         5.1600   -6.2500   -0.5520 oh        1 MOL     -0.571409
     93 H37         0.2980   -1.5300    0.5450 hn        1 MOL      0.334241
     94 H38        -0.7240   -4.0840   -0.3930 h1        1 MOL      0.037365
     95 H39         0.9230   -2.0330   -2.0860 hc        1 MOL      0.038616
     96 H40         0.0610   -3.4730   -2.7130 hc        1 MOL      0.038616
     97 H41         0.9140   -5.8030   -1.8760 ha        1 MOL      0.086467
     98 H42         3.0820   -2.2180   -0.9590 ha        1 MOL      0.086467
     99 H43         2.8780   -7.1340   -1.5900 ha        1 MOL      0.167789
    100 H44         5.1350   -3.5860   -0.5310 ha        1 MOL      0.167789
    101 H45         5.9210   -5.7820   -0.2070 ho        1 MOL      0.429284
    102 N10        -2.7000   -3.0500   -1.3100 n         1 MOL     -0.762222
    103 C34        -4.0120   -2.4420   -1.6060 c3        1 MOL      0.353147
    104 C35        -4.9440   -2.3150   -0.3250 c         1 MOL      0.409193
    105 O15        -5.1570   -1.1820    0.1040 o         1 MOL     -0.440066
    106 C36        -4.7670   -2.9920   -2.8870 c3        1 MOL      0.106587
    107 C37        -3.8930   -3.1190   -4.1950 c3        1 MOL     -0.163153
    108 C38        -6.1320   -2.2030   -3.0760 c3        1 MOL     -0.294218
    109 C39        -3.3780   -1.7680   -4.7320 c3        1 MOL     -0.063541
    110 H46        -2.5870   -4.0420   -1.4640 hn        1 MOL      0.356312
    111 H47        -3.7470   -1.4140   -1.8340 h1        1 MOL     -0.102801
    112 H48        -5.0530   -4.0090   -2.6390 hc        1 MOL     -0.037887
    113 H49        -4.4960   -3.4820   -5.0360 hc        1 MOL      0.061874
    114 H50        -3.1300   -3.8450   -3.9480 hc        1 MOL      0.061874
    115 H51        -6.3640   -2.0820   -4.1310 hc        1 MOL      0.086878
    116 H52        -6.9630   -2.7550   -2.6460 hc        1 MOL      0.086878
    117 H53        -6.1470   -1.1790   -2.6810 hc        1 MOL      0.086878
    118 H54        -4.0850   -0.9510   -4.5900 hc        1 MOL      0.039791
    119 H55        -2.4350   -1.4000   -4.3340 hc        1 MOL      0.039791
    120 H56        -3.1460   -1.9010   -5.7920 hc        1 MOL      0.039791
    121 N11        -5.3870   -3.4180    0.3030 n         1 MOL     -0.200779
    122 C40        -6.0880   -3.3250    1.5960 c3        1 MOL     -0.306914
    123 C41        -7.4080   -2.5820    1.6220 c         1 MOL      0.644964
    124 O16        -7.8830   -2.2160    2.6940 o         1 MOL     -0.521670
    125 C42        -6.0720   -4.7770    2.2460 c3        1 MOL      0.087934
    126 O17        -6.6680   -5.7330    1.4230 oh        1 MOL     -0.565831
    127 H57        -5.3100   -4.2930   -0.1960 hn        1 MOL      0.217486
    128 H58        -5.4450   -2.6230    2.1240 h1        1 MOL      0.115396
    129 H59        -6.6650   -4.8410    3.1610 h1        1 MOL      0.105016
    130 H60        -5.0460   -5.1360    2.3540 h1        1 MOL      0.105016
    131 H61        -5.9980   -6.1450    0.8850 ho        1 MOL      0.396162
    132 N12        -8.0390   -2.3430    0.4460 n         1 MOL     -0.199579
    133 C43        -9.2440   -1.6020    0.1860 c3        1 MOL      0.104711
    134 C44        -9.0520   -0.1140    0.7020 c         1 MOL      0.458271
    135 O18        -9.9540    0.5390    1.2530 o         1 MOL     -0.500511
    136 C45       -10.5270   -2.3500    0.6890 c3        1 MOL     -0.380349
    137 H62        -7.5260   -2.8330   -0.2690 hn        1 MOL      0.113481
    138 H63        -9.3830   -1.6320   -0.8930 h1        1 MOL      0.074826
    139 H64       -10.5580   -2.2280    1.7750 hc        1 MOL      0.117604
    140 H65       -11.4450   -1.8680    0.3480 hc        1 MOL      0.117604
    141 H66       -10.4970   -3.3490    0.2630 hc        1 MOL      0.117604
    142 N13        -7.8700    0.4950    0.4970 n         1 MOL     -0.447362
    143 C46        -7.5090    1.8030    1.0290 c3        1 MOL      0.261193
    144 C47        -6.6880    2.6100   -0.0660 c         1 MOL      0.530825
    145 O19        -6.1930    2.1150   -1.0600 o         1 MOL     -0.458984
    146 C48        -6.7540    1.6510    2.3720 c3        1 MOL     -0.133416
    147 H67        -7.2490    0.0380   -0.1580 hn        1 MOL      0.122458
    148 H68        -8.3740    2.4020    1.3070 h1        1 MOL      0.017166
    149 H69        -7.3570    1.1780    3.1470 hc        1 MOL      0.042364
    150 H70        -5.9030    0.9970    2.1980 hc        1 MOL      0.042364
    151 H71        -6.3850    2.5950    2.7710 hc        1 MOL      0.042364
    152 N14        -6.5720    3.9060    0.1740 n         1 MOL     -0.682653
    153 C49        -6.0960    4.9130   -0.7770 c3        1 MOL      0.269041
    154 C50        -6.8740    4.9960   -2.1040 c         1 MOL      0.360515
    155 O20        -6.3060    5.3760   -3.1490 o         1 MOL     -0.494334
    156 C51        -4.5640    4.7840   -1.0420 c3        1 MOL      0.003185
    157 C52        -3.8060    4.8270    0.2670 c3        1 MOL     -0.017409
    158 C53        -2.3240    4.6390    0.0720 c         1 MOL      0.606859
    159 O21        -1.6430    5.7150   -0.0390 o         1 MOL     -0.677026
    160 O22        -1.7810    3.5160    0.1070 o         1 MOL     -0.677026
    161 H72        -6.9060    4.2550    1.0610 hn        1 MOL      0.331888
    162 H73        -6.2820    5.9150   -0.3930 h1        1 MOL      0.040476
    163 H74        -4.3330    5.6520   -1.6480 hc        1 MOL     -0.011761
    164 H75        -4.3640    3.8000   -1.4690 hc        1 MOL     -0.011761
    165 H76        -3.9960    3.8760    0.7690 hc        1 MOL     -0.015646
    166 H77        -4.2130    5.6720    0.8160 hc        1 MOL     -0.015646
    167 N15        -8.1540    4.6460   -2.0800 n         1 MOL     -0.271791
    168 C54        -8.9620    4.3430   -3.2720 c3        1 MOL     -0.135330
    169 H78        -9.4420    5.2550   -3.6260 h1        1 MOL      0.088179
    170 H79        -8.3190    3.9430   -4.0560 h1        1 MOL      0.088179
    171 H80        -9.7250    3.6070   -3.0170 h1        1 MOL      0.088179
    172 H81        -8.6010    4.5020   -1.1770 hn        1 MOL      0.227755
    173 Ca1        -0.9490    1.5790   -1.2150 Ca        1 MOL      1.708441
    174 O23        -3.6220    1.1380   -1.0460 oh        1 MOL     -0.781874
    175 H82        -3.9650    0.3360   -0.6590 ho        1 MOL      0.388132
    176 H83        -4.3960    1.6290   -1.3340 ho        1 MOL      0.388132
    177 O24        -2.0940    2.2580   -3.3900 oh        1 MOL     -0.781874
    178 H84        -1.9260    3.1980   -3.3570 ho        1 MOL      0.388132
    179 H85        -1.8550    1.9970   -4.2760 ho        1 MOL      0.388132
    180 O25         0.1900    3.7050   -2.3460 oh        1 MOL     -0.781874
    181 H86        -0.2320    4.2010   -3.0450 ho        1 MOL      0.388132
    182 H87         0.5670    4.3790   -1.7750 ho        1 MOL      0.388132
    183 O26         0.4960    0.7120   -3.2030 oh        1 MOL     -0.781874
    184 H88         0.2350    0.0490   -3.8490 ho        1 MOL      0.388132
    185 H89         1.3560    1.0130   -3.4970 ho        1 MOL      0.388132
@<TRIPOS>BOND
     1    1    2 1   
     2    1    4 1   
     3    1    5 1   
     4    1    6 1   
     5    2    3 2   
     6    2    7 1   
     7    7    8 1   
     8    7   15 1   
     9    8    9 1   
    10    8   11 1   
    11    8   16 1   
    12    9   10 2   
    13    9   19 1   
    14   11   12 1   
    15   11   17 1   
    16   11   18 1   
    17   12   13 1   
    18   12   14 1   
    19   19   20 1   
    20   19   28 1   
    21   20   21 1   
    22   20   23 1   
    23   20   29 1   
    24   21   22 2   
    25   21   41 1   
    26   23   24 1   
    27   23   30 1   
    28   23   31 1   
    29   24   25 1   
    30   24   32 1   
    31   24   33 1   
    32   25   26 1   
    33   25   34 1   
    34   25   35 1   
    35   26   27 1   
    36   26   36 1   
    37   26   37 1   
    38   27   38 1   
    39   27   39 1   
    40   27   40 1   
    41   41   42 1   
    42   41   49 1   
    43   42   43 1   
    44   42   45 1   
    45   42   50 1   
    46   43   44 2   
    47   43   53 1   
    48   45   46 1   
    49   45   51 1   
    50   45   52 1   
    51   46   47 1   
    52   46   48 1   
    53   53   54 1   
    54   53   57 1   
    55   54   55 1   
    56   54   58 1   
    57   54   59 1   
    58   55   56 2   
    59   55   60 1   
    60   60   61 1   
    61   60   68 1   
    62   61   62 1   
    63   61   64 1   
    64   61   69 1   
    65   62   63 2   
    66   62   74 1   
    67   64   65 1   
    68   64   70 1   
    69   64   71 1   
    70   65   66 1   
    71   65   67 2   
    72   66   72 1   
    73   66   73 1   
    74   74   75 1   
    75   74   78 1   
    76   75   76 1   
    77   75   79 1   
    78   75   80 1   
    79   76   77 2   
    80   76   81 1   
    81   81   82 1   
    82   81   93 1   
    83   82   83 1   
    84   82   85 1   
    85   82   94 1   
    86   83   84 2   
    87   83  102 1   
    88   85   86 1   
    89   85   95 1   
    90   85   96 1   
    91   86   87 ar  
    92   86   88 ar  
    93   87   89 ar  
    94   87   97 1   
    95   88   90 ar  
    96   88   98 1   
    97   89   91 ar  
    98   89   99 1   
    99   90   91 ar  
   100   90  100 1   
   101   91   92 1   
   102   92  101 1   
   103  102  103 1   
   104  102  110 1   
   105  103  104 1   
   106  103  106 1   
   107  103  111 1   
   108  104  105 2   
   109  104  121 1   
   110  106  107 1   
   111  106  108 1   
   112  106  112 1   
   113  107  109 1   
   114  107  113 1   
   115  107  114 1   
   116  108  115 1   
   117  108  116 1   
   118  108  117 1   
   119  109  118 1   
   120  109  119 1   
   121  109  120 1   
   122  121  122 1   
   123  121  127 1   
   124  122  123 1   
   125  122  125 1   
   126  122  128 1   
   127  123  124 2   
   128  123  132 1   
   129  125  126 1   
   130  125  129 1   
   131  125  130 1   
   132  126  131 1   
   133  132  133 1   
   134  132  137 1   
   135  133  134 1   
   136  133  136 1   
   137  133  138 1   
   138  134  135 2   
   139  134  142 1   
   140  136  139 1   
   141  136  140 1   
   142  136  141 1   
   143  142  143 1   
   144  142  147 1   
   145  143  144 1   
   146  143  146 1   
   147  143  148 1   
   148  144  145 2   
   149  144  152 1   
   150  146  149 1   
   151  146  150 1   
   152  146  151 1   
   153  152  153 1   
   154  152  161 1   
   155  153  154 1   
   156  153  156 1   
   157  153  162 1   
   158  154  155 2   
   159  154  167 1   
   160  156  157 1   
   161  156  163 1   
   162  156  164 1   
   163  157  158 1   
   164  157  165 1   
   165  157  166 1   
   166  158  159 1   
   167  158  160 1   
   168  167  168 1   
   169  167  172 1   
   170  168  169 1   
   171  168  170 1   
   172  168  171 1   
   173  174  175 1   
   174  174  176 1   
   175  177  178 1   
   176  177  179 1   
   177  180  181 1   
   178  180  182 1   
   179  183  184 1   
   180  183  185 1   
@<TRIPOS>SUBSTRUCTURE
     1 MOL         1 TEMP              0 ****  ****    0 ROOT
