@<TRIPOS>MOLECULE
MOL
  181   177     1     0     0
SMALL
resp


@<TRIPOS>ATOM
      1 C1          2.5320   -2.5360    4.2150 c3        1 MOL     -0.313867
      2 C2          3.8130   -1.8510    3.7390 c         1 MOL      0.607136
      3 O1          3.9220   -0.6290    3.7150 o         1 MOL     -0.602694
      4 H1          1.8280   -1.7820    4.5690 hc        1 MOL      0.085325
      5 H2          2.0860   -3.0900    3.3900 hc        1 MOL      0.085325
      6 H3          2.7670   -3.2210    5.0290 hc        1 MOL      0.085325
      7 N1          4.8200   -2.6840    3.3320 n         1 MOL     -0.356066
      8 C3          6.1500   -2.2480    2.9740 c3        1 MOL      0.054812
      9 C4          6.2090   -1.8930    1.5090 c         1 MOL      0.679140
     10 O2          5.9670   -2.7370    0.6610 o         1 MOL     -0.578975
     11 C5          7.1740   -3.3520    3.4230 c3        1 MOL     -0.358795
     12 C6          6.7130   -4.7730    3.4940 c         1 MOL      0.827327
     13 O3          5.8550   -5.2380    2.6850 o         1 MOL     -0.740283
     14 O4          7.2080   -5.4550    4.4220 o         1 MOL     -0.740283
     15 H4          4.6580   -3.6810    3.3120 hn        1 MOL      0.221669
     16 H5          6.3240   -1.3360    3.5500 h1        1 MOL      0.026192
     17 H6          7.4960   -2.9320    4.3800 hc        1 MOL      0.077067
     18 H7          8.0450   -3.4630    2.7780 hc        1 MOL      0.077067
     19 N2          6.6260   -0.6630    1.2140 n         1 MOL     -0.588076
     20 C7          7.4270   -0.4360    0.0520 c3        1 MOL      0.143266
     21 C8          6.6230    0.0830   -1.1390 c         1 MOL      0.331779
     22 O5          7.2030    0.3910   -2.2090 o         1 MOL     -0.512822
     23 C9          8.6840    0.3720    0.5120 c3        1 MOL     -0.261409
     24 H8          6.5530    0.1020    1.8800 hn        1 MOL      0.302040
     25 H9          7.8710   -1.3730   -0.2710 h1        1 MOL      0.143461
     26 H10         8.5000    1.4460    0.5830 hc        1 MOL      0.067687
     27 H11         9.1200   -0.0190    1.4310 hc        1 MOL      0.067687
     28 H12         9.3940    0.1970   -0.2970 hc        1 MOL      0.067687
     29 N3          5.3160    0.2210   -0.9780 n         1 MOL     -0.184517
     30 C10         4.4360    0.7150   -2.0250 c3        1 MOL      0.359772
     31 C11         4.7610    2.1610   -2.4800 c         1 MOL      0.328668
     32 O6          4.4890    2.4950   -3.6070 o         1 MOL     -0.457227
     33 C12         3.9200   -0.3560   -3.1070 c3        1 MOL     -0.291527
     34 C13         3.9380   -1.8050   -2.6570 c         1 MOL      0.814633
     35 O7          4.7280   -2.6090   -3.2210 o         1 MOL     -0.724790
     36 O8          3.2000   -2.1570   -1.6910 o         1 MOL     -0.724790
     37 H13         4.8980    0.0680   -0.0640 hn        1 MOL      0.196854
     38 H14         3.4990    0.8360   -1.4680 h1        1 MOL     -0.036339
     39 H15         4.6270   -0.1930   -3.9260 hc        1 MOL      0.041845
     40 H16         2.8800   -0.1430   -3.3720 hc        1 MOL      0.041845
     41 N4          5.2780    3.0080   -1.6040 n         1 MOL     -0.378675
     42 C14         5.3580    4.4840   -1.8230 c3        1 MOL      0.032503
     43 C15         4.0290    5.2600   -1.9450 c         1 MOL      0.479009
     44 O9          3.9100    6.4070   -1.4510 o         1 MOL     -0.585269
     45 H17         5.2740    2.6530   -0.6510 hn        1 MOL      0.243286
     46 H18         5.7270    4.5620   -2.8480 h1        1 MOL      0.059072
     47 H19         6.0460    5.0210   -1.1750 h1        1 MOL      0.059072
     48 N5          3.1180    4.6650   -2.6380 n         1 MOL     -0.265376
     49 C16         1.7260    5.1030   -2.7790 c3        1 MOL     -0.109117
     50 C17         1.1430    5.6140   -1.4590 c         1 MOL      0.682212
     51 O10         1.0180    4.7580   -0.5400 o         1 MOL     -0.537097
     52 C18         0.9000    3.9170   -3.2850 c3        1 MOL     -0.527737
     53 C19         1.3590    3.5030   -4.6480 c         1 MOL      0.826980
     54 N6          1.6340    2.2380   -4.7890 n         1 MOL     -0.845001
     55 O11         1.6280    4.2540   -5.4860 o         1 MOL     -0.584759
     56 H20         3.4070    3.8690   -3.1930 hn        1 MOL      0.268158
     57 H21         1.6320    5.9670   -3.4360 h1        1 MOL      0.075225
     58 H22        -0.1530    4.2040   -3.3940 hc        1 MOL      0.178111
     59 H23         0.8910    3.0820   -2.5790 hc        1 MOL      0.178111
     60 H24         1.3950    1.5860   -4.0470 hn        1 MOL      0.371409
     61 H25         2.2140    1.9480   -5.5680 hn        1 MOL      0.371409
     62 N7          0.7340    6.8630   -1.3890 n         1 MOL     -0.442658
     63 C20         0.1200    7.5440   -0.2190 c3        1 MOL     -0.088813
     64 C21        -1.1890    6.9710    0.3770 c         1 MOL      0.526126
     65 O12        -2.0900    6.6110   -0.3810 o         1 MOL     -0.470069
     66 H26         0.7330    7.3820   -2.2520 hn        1 MOL      0.297648
     67 H27         0.0140    8.6140   -0.3070 h1        1 MOL      0.093980
     68 H28         0.8600    7.5030    0.5800 h1        1 MOL      0.093980
     69 N8         -1.2900    6.9980    1.7410 n         1 MOL     -0.369478
     70 C22        -2.6400    6.8270    2.4120 c3        1 MOL     -0.402377
     71 C23        -3.1350    5.4350    2.6600 c         1 MOL      0.679571
     72 O13        -4.3620    5.2480    2.7160 o         1 MOL     -0.582695
     73 C24        -2.7410    7.5930    3.7380 c3        1 MOL      0.547416
     74 C25        -1.8240    7.2780    4.8680 c3        1 MOL     -0.368682
     75 O14        -2.4190    8.9260    3.5950 oh        1 MOL     -0.659880
     76 H29        -0.5470    7.4680    2.2360 hn        1 MOL      0.228209
     77 H30        -3.3940    7.3120    1.7910 h1        1 MOL      0.170882
     78 H31        -3.7720    7.4410    4.0500 h1        1 MOL      0.025700
     79 H32        -1.5300    8.9480    3.2400 ho        1 MOL      0.387798
     80 H33        -1.8350    8.0280    5.6590 hc        1 MOL      0.088223
     81 H34        -2.2080    6.3620    5.3220 hc        1 MOL      0.088223
     82 H35        -0.7580    7.1690    4.7160 hc        1 MOL      0.088223
     83 N9         -2.2550    4.4280    2.7360 n         1 MOL     -0.310413
     84 C26        -2.4680    3.0140    3.0610 c3        1 MOL     -0.096138
     85 C27        -1.7940    2.0170    2.0450 c         1 MOL      0.713525
     86 O15        -0.8140    2.3850    1.3680 o         1 MOL     -0.500167
     87 C28        -1.9350    2.9030    4.4850 c3        1 MOL      0.080258
     88 C29        -3.0050    3.4880    5.5000 c3        1 MOL      0.022655
     89 C30        -1.8350    1.4450    4.9000 c3        1 MOL     -0.208669
     90 C31        -2.2650    3.8190    6.7490 c3        1 MOL     -0.154902
     91 H36        -1.3500    4.6370    2.3270 hn        1 MOL      0.194593
     92 H37        -3.5490    2.8510    3.0700 h1        1 MOL      0.072319
     93 H38        -0.9950    3.4550    4.5340 hc        1 MOL      0.029557
     94 H39        -3.7600    2.7210    5.7030 hc        1 MOL      0.003020
     95 H40        -3.5110    4.3320    5.0260 hc        1 MOL      0.003020
     96 H41        -1.3010    1.2100    5.8210 hc        1 MOL      0.064958
     97 H42        -2.8000    0.9600    5.0400 hc        1 MOL      0.064958
     98 H43        -1.1560    0.8880    4.2610 hc        1 MOL      0.064958
     99 H44        -1.8410    2.8700    7.0750 hc        1 MOL      0.027094
    100 H45        -1.5080    4.5980    6.6160 hc        1 MOL      0.027094
    101 H46        -2.9340    4.2070    7.5070 hc        1 MOL      0.027094
    102 N10        -2.3030    0.7970    1.7520 n         1 MOL     -0.842393
    103 C32        -1.7910   -0.2410    0.7770 c3        1 MOL      0.462994
    104 C33        -2.8920   -0.7610   -0.1620 c         1 MOL      0.386650
    105 O16        -2.9770   -2.0050   -0.2960 o         1 MOL     -0.440527
    106 C34        -0.9940   -1.2870    1.5910 c3        1 MOL     -0.154534
    107 C35        -0.0920   -2.1740    0.7140 c         1 MOL      0.654228
    108 O17         0.2190   -1.8580   -0.4570 o         1 MOL     -0.727817
    109 O18         0.3410   -3.1580    1.3340 o         1 MOL     -0.727817
    110 H47        -3.1460    0.5940    2.2790 hn        1 MOL      0.335077
    111 H48        -1.1190    0.4020    0.1960 h1        1 MOL      0.017034
    112 H49        -1.7050   -1.9840    2.0260 hc        1 MOL      0.045204
    113 H50        -0.4010   -0.7400    2.3300 hc        1 MOL      0.045204
    114 N11        -3.8420    0.0550   -0.6950 n         1 MOL     -0.486593
    115 C36        -4.9240   -0.4000   -1.5800 c3        1 MOL      0.275374
    116 C37        -5.8500   -1.3280   -0.8200 c         1 MOL      0.311118
    117 O19        -6.1190   -1.0460    0.3380 o         1 MOL     -0.519674
    118 C38        -5.5460    0.8770   -2.1620 c3        1 MOL     -0.315868
    119 C39        -4.8160    1.3920   -3.4370 ca        1 MOL      0.160657
    120 C40        -4.0050    2.5940   -3.4420 ca        1 MOL     -0.229760
    121 C41        -5.0520    0.7950   -4.6490 ca        1 MOL     -0.229760
    122 C42        -3.3280    2.9360   -4.6850 ca        1 MOL     -0.061478
    123 C43        -4.3240    1.1160   -5.8180 ca        1 MOL     -0.061478
    124 C44        -3.4380    2.1830   -5.7990 ca        1 MOL     -0.126062
    125 H51        -3.8780    1.0330   -0.4490 hn        1 MOL      0.294967
    126 H52        -4.4550   -1.0260   -2.3430 h1        1 MOL      0.060766
    127 H53        -5.5820    1.7020   -1.4580 hc        1 MOL      0.116219
    128 H54        -6.6110    0.7260   -2.3070 hc        1 MOL      0.116219
    129 H55        -3.8720    3.1910   -2.5470 ha        1 MOL      0.138393
    130 H56        -5.7040   -0.0650   -4.7020 ha        1 MOL      0.138393
    131 H57        -2.7050    3.8150   -4.7890 ha        1 MOL      0.089929
    132 H58        -4.5650    0.5850   -6.7260 ha        1 MOL      0.089929
    133 H59        -2.8700    2.3790   -6.6980 ha        1 MOL      0.111031
    134 N12        -6.4000   -2.3910   -1.4200 n         1 MOL     -0.081703
    135 C45        -7.1790   -3.3970   -0.7070 c3        1 MOL      0.032210
    136 C46        -6.3040   -4.2750    0.2300 c         1 MOL      0.296897
    137 O20        -6.8670   -5.1640    0.9170 o         1 MOL     -0.539372
    138 C47        -7.9270   -4.1910   -1.7470 c3        1 MOL      0.034840
    139 C48        -6.9710   -4.3090   -2.8910 c3        1 MOL      0.155245
    140 C49        -6.2700   -2.8840   -2.8260 c3        1 MOL     -0.303698
    141 H60        -7.9620   -2.9280   -0.1180 h1        1 MOL      0.054033
    142 H61        -8.2940   -5.1370   -1.3470 hc        1 MOL      0.003212
    143 H62        -8.8120   -3.7070   -2.1540 hc        1 MOL      0.003212
    144 H63        -6.3130   -5.1730   -2.8600 hc        1 MOL     -0.002966
    145 H64        -7.4780   -4.4890   -3.8470 hc        1 MOL     -0.002966
    146 H65        -5.2210   -2.9930   -3.1230 h1        1 MOL      0.090951
    147 H66        -6.7110   -2.0790   -3.4110 h1        1 MOL      0.090951
    148 N13        -4.9510   -4.1600    0.2560 n         1 MOL      0.043802
    149 C50        -4.0900   -5.1360    0.9820 c3        1 MOL     -0.426235
    150 C51        -4.0620   -4.9790    2.5290 c         1 MOL      0.518245
    151 O21        -3.4360   -5.7970    3.2350 o         1 MOL     -0.563909
    152 C52        -2.7010   -5.2190    0.2960 c3        1 MOL      0.171025
    153 C53        -2.8100   -5.7990   -1.1000 c3        1 MOL     -0.314435
    154 C54        -1.6580   -5.4550   -2.0500 c         1 MOL      0.727976
    155 O22        -0.6320   -4.8580   -1.6150 o         1 MOL     -0.716578
    156 O23        -1.7370   -5.9670   -3.2050 o         1 MOL     -0.716578
    157 H67        -4.4580   -3.5000   -0.3290 hn        1 MOL      0.167858
    158 H68        -4.5890   -6.0930    0.7930 h1        1 MOL      0.156621
    159 H69        -2.0680   -5.8010    0.9670 hc        1 MOL      0.034666
    160 H70        -2.1500   -4.2770    0.2550 hc        1 MOL      0.034666
    161 H71        -3.7360   -5.3720   -1.4860 hc        1 MOL      0.066447
    162 H72        -2.9320   -6.8790   -1.0670 hc        1 MOL      0.066447
    163 N14        -4.6530   -3.9680    3.0360 n         1 MOL     -0.137894
    164 C55        -4.7980   -3.6150    4.4440 c3        1 MOL     -0.215883
    165 H73        -5.6810   -2.9890    4.5710 h1        1 MOL      0.091857
    166 H74        -4.9070   -4.5220    5.0370 h1        1 MOL      0.091857
    167 H75        -3.9150   -3.0680    4.7740 h1        1 MOL      0.091857
    168 H76        -4.9710   -3.3080    2.3340 hn        1 MOL      0.179852
    169 Ca1         1.5420   -4.0530   -0.8640 Ca        1 MOL      1.796344
    170 O24         1.7110   -6.2790    0.4640 oh        1 MOL     -0.916553
    171 H77         2.5350   -6.4970    0.9080 ho        1 MOL      0.431615
    172 H78         1.1400   -7.0350    0.6430 ho        1 MOL      0.431615
    173 O25         3.7400   -4.1450    0.6530 oh        1 MOL     -0.916553
    174 H79         4.5360   -3.6180    0.7180 ho        1 MOL      0.431615
    175 H80         3.9580   -4.9570    1.1150 ho        1 MOL      0.431615
    176 O26         1.1770   -3.6690   -3.4880 oh        1 MOL     -0.916553
    177 H81         1.2540   -4.3670   -4.1440 ho        1 MOL      0.431615
    178 H82         0.9060   -2.8980   -3.9880 ho        1 MOL      0.431615
    179 O27         3.6760   -4.9410   -2.4900 oh        1 MOL     -0.916553
    180 H83         4.4680   -5.4170   -2.2360 ho        1 MOL      0.431615
    181 H84         4.0010   -4.0800   -2.7700 ho        1 MOL      0.431615
@<TRIPOS>BOND
     1    1    2 1   
     2    1    4 1   
     3    1    5 1   
     4    1    6 1   
     5    2    3 2   
     6    2    7 1   
     7    7    8 1   
     8    7   15 1   
     9    8    9 1   
    10    8   11 1   
    11    8   16 1   
    12    9   10 2   
    13    9   19 1   
    14   11   12 1   
    15   11   17 1   
    16   11   18 1   
    17   12   13 1   
    18   12   14 1   
    19   19   20 1   
    20   19   24 1   
    21   20   21 1   
    22   20   23 1   
    23   20   25 1   
    24   21   22 2   
    25   21   29 1   
    26   23   26 1   
    27   23   27 1   
    28   23   28 1   
    29   29   30 1   
    30   29   37 1   
    31   30   31 1   
    32   30   33 1   
    33   30   38 1   
    34   31   32 2   
    35   31   41 1   
    36   33   34 1   
    37   33   39 1   
    38   33   40 1   
    39   34   35 1   
    40   34   36 1   
    41   41   42 1   
    42   41   45 1   
    43   42   43 1   
    44   42   46 1   
    45   42   47 1   
    46   43   44 2   
    47   43   48 1   
    48   48   49 1   
    49   48   56 1   
    50   49   50 1   
    51   49   52 1   
    52   49   57 1   
    53   50   51 2   
    54   50   62 1   
    55   52   53 1   
    56   52   58 1   
    57   52   59 1   
    58   53   54 1   
    59   53   55 2   
    60   54   60 1   
    61   54   61 1   
    62   62   63 1   
    63   62   66 1   
    64   63   64 1   
    65   63   67 1   
    66   63   68 1   
    67   64   65 2   
    68   64   69 1   
    69   69   70 1   
    70   69   76 1   
    71   70   71 1   
    72   70   73 1   
    73   70   77 1   
    74   71   72 2   
    75   71   83 1   
    76   73   74 1   
    77   73   75 1   
    78   73   78 1   
    79   74   80 1   
    80   74   81 1   
    81   74   82 1   
    82   75   79 1   
    83   83   84 1   
    84   83   91 1   
    85   84   85 1   
    86   84   87 1   
    87   84   92 1   
    88   85   86 2   
    89   85  102 1   
    90   87   88 1   
    91   87   89 1   
    92   87   93 1   
    93   88   90 1   
    94   88   94 1   
    95   88   95 1   
    96   89   96 1   
    97   89   97 1   
    98   89   98 1   
    99   90   99 1   
   100   90  100 1   
   101   90  101 1   
   102  102  103 1   
   103  102  110 1   
   104  103  104 1   
   105  103  106 1   
   106  103  111 1   
   107  104  105 2   
   108  104  114 1   
   109  106  107 1   
   110  106  112 1   
   111  106  113 1   
   112  107  108 1   
   113  107  109 1   
   114  114  115 1   
   115  114  125 1   
   116  115  116 1   
   117  115  118 1   
   118  115  126 1   
   119  116  117 2   
   120  116  134 1   
   121  118  119 1   
   122  118  127 1   
   123  118  128 1   
   124  119  120 ar  
   125  119  121 ar  
   126  120  122 ar  
   127  120  129 1   
   128  121  123 ar  
   129  121  130 1   
   130  122  124 ar  
   131  122  131 1   
   132  123  124 ar  
   133  123  132 1   
   134  124  133 1   
   135  134  135 1   
   136  134  140 1   
   137  135  136 1   
   138  135  138 1   
   139  135  141 1   
   140  136  137 2   
   141  136  148 1   
   142  138  139 1   
   143  138  142 1   
   144  138  143 1   
   145  139  140 1   
   146  139  144 1   
   147  139  145 1   
   148  140  146 1   
   149  140  147 1   
   150  148  149 1   
   151  148  157 1   
   152  149  150 1   
   153  149  152 1   
   154  149  158 1   
   155  150  151 2   
   156  150  163 1   
   157  152  153 1   
   158  152  159 1   
   159  152  160 1   
   160  153  154 1   
   161  153  161 1   
   162  153  162 1   
   163  154  155 1   
   164  154  156 1   
   165  163  164 1   
   166  163  168 1   
   167  164  165 1   
   168  164  166 1   
   169  164  167 1   
   170  170  171 1   
   171  170  172 1   
   172  173  174 1   
   173  173  175 1   
   174  176  177 1   
   175  176  178 1   
   176  179  180 1   
   177  179  181 1   
@<TRIPOS>SUBSTRUCTURE
     1 MOL         1 TEMP              0 ****  ****    0 ROOT
