@<TRIPOS>MOLECULE
MOL
  183   181     1     0     0
SMALL
resp


@<TRIPOS>ATOM
      1 C1        -12.7180    4.5580    3.9210 c3        1 MOL     -0.476777
      2 C2        -12.5700    3.8230    2.6200 c         1 MOL      0.732498
      3 O1        -13.1680    2.8130    2.4130 o         1 MOL     -0.599667
      4 H1        -13.7220    4.4030    4.3130 hc        1 MOL      0.117771
      5 H2        -11.9870    4.1810    4.6370 hc        1 MOL      0.117771
      6 H3        -12.5520    5.6220    3.7580 hc        1 MOL      0.117771
      7 N1        -11.8180    4.3820    1.6980 n         1 MOL     -0.077968
      8 C3        -11.5460    3.6940    0.4520 c3        1 MOL     -0.984696
      9 C4        -10.4260    2.5470    0.5250 c         1 MOL      0.774985
     10 O2         -9.3770    2.6580    1.1750 o         1 MOL     -0.673412
     11 C5        -11.2640    4.8120   -0.6370 c3        1 MOL      0.517232
     12 C6        -10.2430    5.8470   -0.2770 c         1 MOL      0.431579
     13 O3         -9.6740    5.6230    0.8000 o         1 MOL     -0.636562
     14 O4         -9.9690    6.7890   -1.0540 o         1 MOL     -0.636562
     15 H4        -11.0720    4.9550    2.0610 hn        1 MOL      0.115802
     16 H5        -12.4410    3.1780    0.1130 h1        1 MOL      0.271108
     17 H6        -12.2220    5.2810   -0.8960 hc        1 MOL     -0.052429
     18 H7        -11.0060    4.2050   -1.4970 hc        1 MOL     -0.052429
     19 N2        -10.7380    1.5010   -0.2540 n         1 MOL     -0.249416
     20 C7        -10.0270    0.1720   -0.1610 c3        1 MOL     -0.211189
     21 C8         -8.5690    0.1140   -0.4960 c         1 MOL      0.467347
     22 O5         -7.9780   -0.9490   -0.2410 o         1 MOL     -0.494218
     23 C9        -10.9150   -0.7880   -1.0240 c3        1 MOL     -0.211588
     24 C10       -11.5540   -1.9590   -0.1760 c3        1 MOL      0.068352
     25 C11       -12.1950   -3.0500   -1.0220 c3        1 MOL      0.046854
     26 C12       -12.6540   -4.3180   -0.2420 c3        1 MOL     -0.027572
     27 N3        -11.6160   -5.3100    0.1710 n4        1 MOL     -0.287101
     28 H8        -11.6560    1.4820   -0.6680 hn        1 MOL      0.260085
     29 H9        -10.1250   -0.2610    0.8340 h1        1 MOL      0.141975
     30 H10       -10.2940   -1.3640   -1.7200 hc        1 MOL      0.094382
     31 H11       -11.6230   -0.2260   -1.6450 hc        1 MOL      0.094382
     32 H12       -12.3220   -1.6780    0.5510 hc        1 MOL      0.007083
     33 H13       -10.7290   -2.3850    0.3840 hc        1 MOL      0.007083
     34 H14       -11.5640   -3.3800   -1.8470 hc        1 MOL      0.035934
     35 H15       -13.0380   -2.6220   -1.5680 hc        1 MOL      0.035934
     36 H16       -13.2820   -4.9030   -0.9140 hx        1 MOL      0.080278
     37 H17       -13.2520   -3.9440    0.5840 hx        1 MOL      0.080278
     38 H18       -12.0370   -5.9180    0.8580 hn        1 MOL      0.310582
     39 H19       -11.1910   -5.8530   -0.5690 hn        1 MOL      0.310582
     40 H20       -10.8340   -4.8660    0.6390 hn        1 MOL      0.310582
     41 N4         -8.0030    1.1560   -1.0040 n         1 MOL      0.006926
     42 C13        -6.5970    1.2660   -1.5030 c3        1 MOL     -0.585771
     43 C14        -5.6720    1.4570   -0.3190 c         1 MOL      0.618011
     44 O6         -5.9520    2.1240    0.6790 o         1 MOL     -0.673720
     45 C15        -6.2940    2.4050   -2.5750 c3        1 MOL     -0.042409
     46 C16        -7.0130    3.7410   -2.3030 c         1 MOL      0.477946
     47 O7         -6.8380    4.6820   -3.1320 o         1 MOL     -0.588656
     48 O8         -7.5970    3.9300   -1.1950 o         1 MOL     -0.588656
     49 H21        -8.5530    1.9610   -1.2420 hn        1 MOL      0.179414
     50 H22        -6.3510    0.3660   -2.0670 h1        1 MOL      0.237431
     51 H23        -6.5290    2.1160   -3.5990 hc        1 MOL      0.096844
     52 H24        -5.2070    2.4390   -2.6290 hc        1 MOL      0.096844
     53 N5         -4.3660    1.1140   -0.4870 n         1 MOL     -0.443236
     54 C17        -3.7310    0.3670   -1.5950 c3        1 MOL     -0.015338
     55 C18        -4.0350   -1.1470   -1.3890 c         1 MOL      0.578705
     56 O9         -5.0290   -1.4190   -0.7040 o         1 MOL     -0.459035
     57 H25        -3.7870    1.3110    0.3150 hn        1 MOL      0.320166
     58 H26        -2.6440    0.4490   -1.4980 h1        1 MOL      0.067163
     59 H27        -4.0390    0.6790   -2.5880 h1        1 MOL      0.067163
     60 N6         -3.2350   -2.0460   -1.9620 n         1 MOL     -0.536978
     61 C19        -3.5260   -3.5090   -1.8790 c3        1 MOL      0.090428
     62 C20        -2.2180   -4.3640   -1.9970 c         1 MOL      0.511566
     63 O10        -1.0860   -3.8840   -2.1800 o         1 MOL     -0.533813
     64 C21        -4.4830   -3.8290   -3.0130 c3        1 MOL     -0.216172
     65 C22        -5.1810   -5.1300   -2.9310 c         1 MOL      0.695241
     66 O11        -5.6570   -5.5810   -3.9750 o         1 MOL     -0.703688
     67 O12        -5.2460   -5.7050   -1.8260 o         1 MOL     -0.703688
     68 H28        -2.3940   -1.7730   -2.4590 hn        1 MOL      0.294377
     69 H29        -4.0130   -3.7150   -0.9270 h1        1 MOL      0.024771
     70 H30        -3.9270   -3.7760   -3.9510 hc        1 MOL      0.056019
     71 H31        -5.1880   -3.0030   -3.0870 hc        1 MOL      0.056019
     72 N7         -2.3780   -5.6440   -1.6510 n         1 MOL     -0.235291
     73 C23        -1.3070   -6.5970   -1.5990 c3        1 MOL     -0.261233
     74 C24        -0.1970   -6.4530   -0.4740 c         1 MOL      0.489259
     75 O13         0.7990   -7.1730   -0.6190 o         1 MOL     -0.559665
     76 H32        -3.2660   -5.9060   -1.2620 hn        1 MOL      0.227279
     77 H33        -0.6150   -6.4650   -2.4270 h1        1 MOL      0.137093
     78 H34        -1.6560   -7.6320   -1.6460 h1        1 MOL      0.137093
     79 N8         -0.3030   -5.5210    0.4210 n         1 MOL     -0.213240
     80 C25         0.7520   -5.0610    1.3790 c3        1 MOL     -0.128789
     81 C26         0.9720   -3.4900    1.3200 c         1 MOL      0.672815
     82 O14         0.0340   -2.7540    0.9820 o         1 MOL     -0.530933
     83 C27         0.4810   -5.4070    2.8420 c3        1 MOL      0.298438
     84 C28        -0.8420   -4.8680    3.3890 c3        1 MOL     -0.347645
     85 O15         0.3530   -6.7820    3.0450 oh        1 MOL     -0.597713
     86 H35        -1.2170   -5.0990    0.4970 hn        1 MOL      0.201366
     87 H36         1.6910   -5.5470    1.1430 h1        1 MOL      0.087592
     88 H37         1.3400   -5.0480    3.4050 h1        1 MOL      0.065860
     89 H38        -0.3560   -7.1060    2.4840 ho        1 MOL      0.370862
     90 H39        -1.6900   -5.3520    2.9140 hc        1 MOL      0.088706
     91 H40        -0.9260   -5.1480    4.4450 hc        1 MOL      0.088706
     92 H41        -1.0270   -3.8160    3.1870 hc        1 MOL      0.088706
     93 N9          2.2190   -2.9870    1.4240 n         1 MOL     -0.576005
     94 C29         2.5300   -1.5460    1.3180 c3        1 MOL      0.020736
     95 C30         3.8860   -1.2880    0.6810 c         1 MOL      0.715031
     96 O16         3.9150   -0.4350   -0.1610 o         1 MOL     -0.535582
     97 C31         2.3510   -0.9470    2.7210 c3        1 MOL      0.126628
     98 C32         1.2300   -1.4970    3.6160 c3        1 MOL     -0.025453
     99 C33         2.3690    0.6130    2.6770 c3        1 MOL     -0.187463
    100 C34         1.1930   -0.8030    5.0140 c3        1 MOL     -0.154989
    101 H42         2.9740   -3.6410    1.5950 hn        1 MOL      0.260980
    102 H43         1.7660   -1.0340    0.7400 h1        1 MOL      0.079380
    103 H44         3.3240   -1.1380    3.1920 hc        1 MOL     -0.024142
    104 H45         1.4540   -2.5360    3.8720 hc        1 MOL      0.027918
    105 H46         0.2530   -1.3770    3.1600 hc        1 MOL      0.027918
    106 H47         3.2230    0.9620    2.1110 hc        1 MOL      0.051936
    107 H48         1.4860    1.0470    2.2160 hc        1 MOL      0.051936
    108 H49         2.4710    1.0900    3.6570 hc        1 MOL      0.051936
    109 H50         2.1580   -0.9620    5.5000 hc        1 MOL      0.035595
    110 H51         1.0540    0.2740    4.9140 hc        1 MOL      0.035595
    111 H52         0.4890   -1.2450    5.7160 hc        1 MOL      0.035595
    112 N10         4.8870   -2.1510    1.0220 n         1 MOL     -0.609424
    113 C35         6.1150   -2.3150    0.2180 c3        1 MOL     -0.014163
    114 C36         7.4110   -2.4740    1.0250 c         1 MOL      0.772713
    115 O17         7.3850   -2.8970    2.1990 o         1 MOL     -0.572938
    116 C37         6.0280   -3.5800   -0.7420 c3        1 MOL      0.222679
    117 C38         5.0780   -3.2330   -1.9280 c3        1 MOL     -0.371050
    118 O18         7.2690   -3.9390   -1.3000 oh        1 MOL     -0.667980
    119 H53         4.8110   -2.7930    1.7950 hn        1 MOL      0.315244
    120 H54         6.3210   -1.4830   -0.4630 h1        1 MOL      0.127170
    121 H55         5.8150   -4.4680   -0.1480 h1        1 MOL      0.045384
    122 H56         7.1600   -4.6450   -1.9480 ho        1 MOL      0.432424
    123 H57         4.0470   -3.1880   -1.5870 hc        1 MOL      0.118293
    124 H58         5.3440   -2.2510   -2.3370 hc        1 MOL      0.118293
    125 H59         5.1470   -3.9590   -2.7320 hc        1 MOL      0.118293
    126 N11         8.5600   -2.0370    0.4720 n         1 MOL     -0.783727
    127 C39         9.7810   -1.8640    1.3400 c3        1 MOL      0.268435
    128 C40        10.0210   -0.4020    1.6260 c         1 MOL      0.510367
    129 O19         9.8090   -0.1070    2.7760 o         1 MOL     -0.547344
    130 C41        10.9630   -2.5250    0.5890 c3        1 MOL      0.206282
    131 C42        12.1970   -2.3800    1.4550 c3        1 MOL     -0.295048
    132 O20        11.2590   -1.9540   -0.6520 oh        1 MOL     -0.561564
    133 H60         8.5600   -1.8490   -0.5220 hn        1 MOL      0.353913
    134 H61         9.7110   -2.3380    2.3240 h1        1 MOL      0.066695
    135 H62        10.6410   -3.5640    0.5240 h1        1 MOL      0.030511
    136 H63        10.6740   -2.2910   -1.3360 ho        1 MOL      0.392403
    137 H64        12.5360   -1.3560    1.3570 hc        1 MOL      0.077554
    138 H65        11.9990   -2.6340    2.4950 hc        1 MOL      0.077554
    139 H66        13.0420   -2.9990    1.1220 hc        1 MOL      0.077554
    140 N12        10.3180    0.4090    0.6260 n         1 MOL     -0.339741
    141 C43        10.6410    1.8610    0.6330 c3        1 MOL      0.066757
    142 C44         9.7060    2.5370   -0.3540 c         1 MOL      0.641400
    143 O21         9.3580    1.9720   -1.3990 o         1 MOL     -0.538968
    144 C45        12.1200    2.0410    0.3370 c3        1 MOL     -0.073108
    145 C46        12.6590    1.5020   -0.9420 c3        1 MOL      0.023074
    146 C47        14.2050    1.6060   -1.1910 c3        1 MOL     -0.022851
    147 C48        14.7070    0.6330   -2.2850 c3        1 MOL      0.107276
    148 N13        16.1910    0.7320   -2.3630 n4        1 MOL     -0.245592
    149 H67        10.4730   -0.0220   -0.2760 hn        1 MOL      0.184196
    150 H68        10.4740    2.2090    1.6550 h1        1 MOL      0.047009
    151 H69        12.6810    1.5460    1.1400 hc        1 MOL      0.024832
    152 H70        12.4600    3.0670    0.4810 hc        1 MOL      0.024832
    153 H71        12.1180    2.1500   -1.6290 hc        1 MOL      0.020260
    154 H72        12.3600    0.4620   -1.1200 hc        1 MOL      0.020260
    155 H73        14.8400    1.3990   -0.3250 hc        1 MOL      0.020174
    156 H74        14.4870    2.6130   -1.5280 hc        1 MOL      0.020174
    157 H75        14.2020    0.8740   -3.2230 hx        1 MOL      0.050691
    158 H76        14.4650   -0.4100   -2.0460 hx        1 MOL      0.050691
    159 H77        16.5050    0.6030   -1.4150 hn        1 MOL      0.236747
    160 H78        16.7030    0.1460   -3.0120 hn        1 MOL      0.236747
    161 H79        16.3660    1.6790   -2.6750 hn        1 MOL      0.236747
    162 N14         9.3340    3.8100   -0.0420 n         1 MOL     -0.693129
    163 C49         8.1310    4.3810   -0.6810 c3        1 MOL      0.554662
    164 C50         6.8260    3.7180   -0.4380 c         1 MOL      0.290654
    165 O22         6.3340    2.9440   -1.2520 o         1 MOL     -0.499994
    166 C51         8.0900    5.9080   -0.6310 c3        1 MOL     -0.042457
    167 C52         9.2100    6.6000   -1.3910 c3        1 MOL     -0.076677
    168 C53         9.2890    8.0950   -1.2200 c         1 MOL      0.657310
    169 O23         8.2610    8.8030   -1.5450 o         1 MOL     -0.631017
    170 O24        10.1960    8.6240   -0.6480 o         1 MOL     -0.631017
    171 H80         9.7410    4.3010    0.7440 hn        1 MOL      0.335673
    172 H81         8.2730    4.2320   -1.7590 h1        1 MOL     -0.029915
    173 H82         8.1260    6.2410    0.4090 hc        1 MOL      0.000886
    174 H83         7.1720    6.2860   -1.0880 hc        1 MOL      0.000886
    175 H84         9.1390    6.4010   -2.4580 hc        1 MOL     -0.019053
    176 H85        10.1110    6.1770   -0.9510 hc        1 MOL     -0.019053
    177 N15         6.1770    3.8720    0.7420 n         1 MOL     -0.352260
    178 C54         6.5790    4.3790    2.0500 c3        1 MOL     -0.158060
    179 H86         5.7170    4.8220    2.5480 h1        1 MOL      0.083253
    180 H87         6.9670    3.5600    2.6560 h1        1 MOL      0.083253
    181 H88         7.3540    5.1360    1.9250 h1        1 MOL      0.083253
    182 H89         5.2340    3.5200    0.6540 hn        1 MOL      0.292949
    183 Ca1        -7.4710    4.2200    1.2250 Ca        1 MOL      1.712382
@<TRIPOS>BOND
     1    1    2 1   
     2    1    4 1   
     3    1    5 1   
     4    1    6 1   
     5    2    3 2   
     6    2    7 1   
     7    7    8 1   
     8    7   15 1   
     9    8    9 1   
    10    8   11 1   
    11    8   16 1   
    12    9   10 2   
    13    9   19 1   
    14   11   12 1   
    15   11   17 1   
    16   11   18 1   
    17   12   13 1   
    18   12   14 1   
    19   19   20 1   
    20   19   28 1   
    21   20   21 1   
    22   20   23 1   
    23   20   29 1   
    24   21   22 2   
    25   21   41 1   
    26   23   24 1   
    27   23   30 1   
    28   23   31 1   
    29   24   25 1   
    30   24   32 1   
    31   24   33 1   
    32   25   26 1   
    33   25   34 1   
    34   25   35 1   
    35   26   27 1   
    36   26   36 1   
    37   26   37 1   
    38   27   38 1   
    39   27   39 1   
    40   27   40 1   
    41   41   42 1   
    42   41   49 1   
    43   42   43 1   
    44   42   45 1   
    45   42   50 1   
    46   43   44 2   
    47   43   53 1   
    48   45   46 1   
    49   45   51 1   
    50   45   52 1   
    51   46   47 1   
    52   46   48 1   
    53   53   54 1   
    54   53   57 1   
    55   54   55 1   
    56   54   58 1   
    57   54   59 1   
    58   55   56 2   
    59   55   60 1   
    60   60   61 1   
    61   60   68 1   
    62   61   62 1   
    63   61   64 1   
    64   61   69 1   
    65   62   63 2   
    66   62   72 1   
    67   64   65 1   
    68   64   70 1   
    69   64   71 1   
    70   65   66 1   
    71   65   67 1   
    72   72   73 1   
    73   72   76 1   
    74   73   74 1   
    75   73   77 1   
    76   73   78 1   
    77   74   75 2   
    78   74   79 1   
    79   79   80 1   
    80   79   86 1   
    81   80   81 1   
    82   80   83 1   
    83   80   87 1   
    84   81   82 2   
    85   81   93 1   
    86   83   84 1   
    87   83   85 1   
    88   83   88 1   
    89   84   90 1   
    90   84   91 1   
    91   84   92 1   
    92   85   89 1   
    93   93   94 1   
    94   93  101 1   
    95   94   95 1   
    96   94   97 1   
    97   94  102 1   
    98   95   96 2   
    99   95  112 1   
   100   97   98 1   
   101   97   99 1   
   102   97  103 1   
   103   98  100 1   
   104   98  104 1   
   105   98  105 1   
   106   99  106 1   
   107   99  107 1   
   108   99  108 1   
   109  100  109 1   
   110  100  110 1   
   111  100  111 1   
   112  112  113 1   
   113  112  119 1   
   114  113  114 1   
   115  113  116 1   
   116  113  120 1   
   117  114  115 2   
   118  114  126 1   
   119  116  117 1   
   120  116  118 1   
   121  116  121 1   
   122  117  123 1   
   123  117  124 1   
   124  117  125 1   
   125  118  122 1   
   126  126  127 1   
   127  126  133 1   
   128  127  128 1   
   129  127  130 1   
   130  127  134 1   
   131  128  129 2   
   132  128  140 1   
   133  130  131 1   
   134  130  132 1   
   135  130  135 1   
   136  131  137 1   
   137  131  138 1   
   138  131  139 1   
   139  132  136 1   
   140  140  141 1   
   141  140  149 1   
   142  141  142 1   
   143  141  144 1   
   144  141  150 1   
   145  142  143 2   
   146  142  162 1   
   147  144  145 1   
   148  144  151 1   
   149  144  152 1   
   150  145  146 1   
   151  145  153 1   
   152  145  154 1   
   153  146  147 1   
   154  146  155 1   
   155  146  156 1   
   156  147  148 1   
   157  147  157 1   
   158  147  158 1   
   159  148  159 1   
   160  148  160 1   
   161  148  161 1   
   162  162  163 1   
   163  162  171 1   
   164  163  164 1   
   165  163  166 1   
   166  163  172 1   
   167  164  165 2   
   168  164  177 1   
   169  166  167 1   
   170  166  173 1   
   171  166  174 1   
   172  167  168 1   
   173  167  175 1   
   174  167  176 1   
   175  168  169 1   
   176  168  170 1   
   177  177  178 1   
   178  177  182 1   
   179  178  179 1   
   180  178  180 1   
   181  178  181 1   
@<TRIPOS>SUBSTRUCTURE
     1 MOL         1 TEMP              0 ****  ****    0 ROOT
