@<TRIPOS>MOLECULE
MOL
  181   177     1     0     0
SMALL
resp


@<TRIPOS>ATOM
      1 C1          9.1510    6.6800    0.6680 c3        1 MOL     -0.278823
      2 C2          8.7800    5.2820    1.1520 c         1 MOL      0.586423
      3 O1          8.6640    5.0780    2.3610 o         1 MOL     -0.579362
      4 H1         10.0620    7.0070    1.1680 hc        1 MOL      0.069597
      5 H2          9.3160    6.6600   -0.4100 hc        1 MOL      0.069597
      6 H3          8.3410    7.3710    0.8990 hc        1 MOL      0.069597
      7 N1          8.7200    4.1990    0.3630 n         1 MOL     -0.438407
      8 C3          8.7580    4.3090   -1.1110 c3        1 MOL     -0.007166
      9 C4          9.7010    3.3170   -1.8250 c         1 MOL      0.481729
     10 O2          9.5160    3.1350   -3.0010 o         1 MOL     -0.525448
     11 C5          7.3390    4.0250   -1.7200 c3        1 MOL     -0.175623
     12 C6          6.8700    2.6070   -1.3600 c         1 MOL      0.720990
     13 O3          5.7820    2.1850   -1.8400 o         1 MOL     -0.738426
     14 O4          7.5390    1.9010   -0.4720 o         1 MOL     -0.738426
     15 H4          8.3530    3.3540    0.7670 hn        1 MOL      0.351546
     16 H5          8.9920    5.2660   -1.5710 h1        1 MOL      0.109501
     17 H6          7.4300    4.1400   -2.8020 hc        1 MOL      0.061550
     18 H7          6.5880    4.7570   -1.4080 hc        1 MOL      0.061550
     19 N2         10.6790    2.7480   -1.1260 n         1 MOL     -0.553812
     20 C7         11.5530    1.7510   -1.7010 c3        1 MOL      0.349368
     21 C8         10.9820    0.2930   -1.5800 c         1 MOL      0.309370
     22 O5         11.5920   -0.6170   -2.1730 o         1 MOL     -0.569613
     23 C9         12.9140    1.8970   -1.0190 c3        1 MOL     -0.284467
     24 H8         10.6530    2.9000   -0.1200 hn        1 MOL      0.316039
     25 H9         11.7500    1.9650   -2.7580 h1        1 MOL      0.033715
     26 H10        12.8070    1.3730   -0.0720 hc        1 MOL      0.067753
     27 H11        13.6140    1.3700   -1.6770 hc        1 MOL      0.067753
     28 H12        13.1550    2.9450   -0.8400 hc        1 MOL      0.067753
     29 N3          9.9150    0.0340   -0.8750 n         1 MOL      0.010703
     30 C10         9.4930   -1.2750   -0.3910 c3        1 MOL     -0.206773
     31 C11         8.1980   -1.7730   -1.1160 c         1 MOL      0.455348
     32 O6          7.4110   -0.9570   -1.6200 o         1 MOL     -0.489145
     33 C12         9.2260   -1.2810    1.1020 c3        1 MOL      0.059997
     34 C13         8.2350   -0.3220    1.6920 c         1 MOL      0.669438
     35 O7          7.0090   -0.5240    1.5120 o         1 MOL     -0.714986
     36 O8          8.7670    0.6420    2.2950 o         1 MOL     -0.714986
     37 H13         9.3530    0.8300   -0.6030 hn        1 MOL      0.131126
     38 H14        10.2700   -1.9850   -0.6660 h1        1 MOL      0.089706
     39 H15        10.1380   -1.1760    1.6800 hc        1 MOL     -0.022653
     40 H16         8.9380   -2.3120    1.2990 hc        1 MOL     -0.022653
     41 N4          7.9440   -3.0870   -1.1120 n         1 MOL     -0.257093
     42 C14         6.7060   -3.6900   -1.7100 c3        1 MOL     -0.503285
     43 C15         5.2570   -3.3200   -1.0790 c         1 MOL      0.791152
     44 O9          5.0770   -2.3440   -0.3380 o         1 MOL     -0.648121
     45 H17         8.6730   -3.7170   -0.7920 hn        1 MOL      0.283267
     46 H18         6.8140   -4.7750   -1.6310 h1        1 MOL      0.198975
     47 H19         6.6990   -3.3140   -2.7360 h1        1 MOL      0.198975
     48 N5          4.2280   -3.9920   -1.5800 n         1 MOL     -0.568999
     49 C16         2.7780   -3.7300   -1.4610 c3        1 MOL      0.068516
     50 C17         2.2320   -3.9980   -0.0600 c         1 MOL      0.641618
     51 O10         2.8960   -4.5350    0.8140 o         1 MOL     -0.522059
     52 C18         1.9980   -4.5980   -2.4500 c3        1 MOL     -0.254060
     53 C19         2.1500   -4.1280   -3.8910 c         1 MOL      0.675422
     54 N6          1.2770   -3.2840   -4.3230 n         1 MOL     -0.771436
     55 O11         3.1190   -4.4580   -4.5910 o         1 MOL     -0.596821
     56 H20         4.4620   -4.8120   -2.1280 hn        1 MOL      0.290696
     57 H21         2.6410   -2.7140   -1.8450 h1        1 MOL      0.110280
     58 H22         0.9330   -4.5370   -2.2360 hc        1 MOL      0.090244
     59 H23         2.2300   -5.6540   -2.3310 hc        1 MOL      0.090244
     60 H24         0.4670   -3.0110   -3.7740 hn        1 MOL      0.382302
     61 H25         1.4260   -2.8880   -5.2380 hn        1 MOL      0.382302
     62 N7          0.9840   -3.5630    0.1830 n         1 MOL     -0.538168
     63 C20         0.2980   -3.6710    1.4830 c3        1 MOL      0.013686
     64 C21         0.8450   -2.6110    2.5480 c         1 MOL      0.563118
     65 O12         1.6990   -1.7750    2.1870 o         1 MOL     -0.563758
     66 H26         0.5680   -3.1030   -0.6080 hn        1 MOL      0.298597
     67 H27         0.2600   -4.6690    1.9220 h1        1 MOL      0.108230
     68 H28        -0.7760   -3.5080    1.3790 h1        1 MOL      0.108230
     69 N8          0.4740   -2.6060    3.8840 n         1 MOL     -0.376092
     70 C22        -0.7540   -3.2600    4.4450 c3        1 MOL     -0.433991
     71 C23        -2.0350   -2.7150    3.8380 c         1 MOL      0.599327
     72 O13        -2.9580   -3.5470    3.8220 o         1 MOL     -0.569785
     73 C24        -0.8190   -3.1480    6.0230 c3        1 MOL      0.518945
     74 C25         0.2020   -4.0320    6.7170 c3        1 MOL     -0.330793
     75 O14        -0.6050   -1.8250    6.3740 oh        1 MOL     -0.652559
     76 H29         0.9950   -1.9280    4.4190 hn        1 MOL      0.257379
     77 H30        -0.7540   -4.3100    4.1570 h1        1 MOL      0.175437
     78 H31        -1.7910   -3.4640    6.3830 h1        1 MOL      0.054227
     79 H32         0.2900   -1.6060    6.1310 ho        1 MOL      0.412233
     80 H33         1.2430   -3.8070    6.5340 hc        1 MOL      0.072527
     81 H34         0.0060   -3.9740    7.7900 hc        1 MOL      0.072527
     82 H35        -0.0460   -5.0470    6.4130 hc        1 MOL      0.072527
     83 N9         -2.0370   -1.5010    3.2250 n         1 MOL     -0.439618
     84 C26        -3.1270   -1.0900    2.3620 c3        1 MOL      0.106413
     85 C27        -2.5570   -0.8770    0.9490 c         1 MOL      0.367182
     86 O15        -1.4060   -0.3520    0.7510 o         1 MOL     -0.490714
     87 C28        -3.7550    0.1800    2.9570 c3        1 MOL      0.203604
     88 C29        -2.8520    1.4380    3.0730 c3        1 MOL     -0.043675
     89 C30        -4.3650   -0.1580    4.3720 c3        1 MOL     -0.371602
     90 C31        -1.6600    1.5200    4.0230 c3        1 MOL     -0.022715
     91 H36        -1.1790   -0.9850    3.1420 hn        1 MOL      0.250512
     92 H37        -3.8260   -1.9180    2.3570 h1        1 MOL      0.103551
     93 H38        -4.5830    0.4690    2.3210 hc        1 MOL      0.010682
     94 H39        -3.5520    2.2630    3.2310 hc        1 MOL      0.026412
     95 H40        -2.4610    1.6210    2.0660 hc        1 MOL      0.026412
     96 H41        -4.8710    0.7240    4.7660 hc        1 MOL      0.078773
     97 H42        -4.8870   -1.1090    4.5160 hc        1 MOL      0.078773
     98 H43        -3.6130   -0.1760    5.1650 hc        1 MOL      0.078773
     99 H44        -1.8930    1.2870    5.0710 hc        1 MOL     -0.000764
    100 H45        -0.7590    0.9750    3.7570 hc        1 MOL     -0.000764
    101 H46        -1.2960    2.5470    4.0820 hc        1 MOL     -0.000764
    102 N10        -3.2620   -1.2710   -0.0830 n         1 MOL     -0.422167
    103 C32        -4.6860   -1.7090   -0.1740 c3        1 MOL      0.250476
    104 C33        -5.6370   -0.9250   -1.1310 c         1 MOL      0.500012
    105 O16        -5.2230   -0.1690   -2.0310 o         1 MOL     -0.463578
    106 C34        -4.7320   -3.1620   -0.4830 c3        1 MOL     -0.110186
    107 C35        -4.0260   -3.7020   -1.7380 c         1 MOL      0.666554
    108 O17        -3.4830   -2.9470   -2.5800 o         1 MOL     -0.719887
    109 O18        -4.0680   -4.9510   -1.7750 o         1 MOL     -0.719887
    110 H47        -2.8670   -0.9540   -0.9510 hn        1 MOL      0.311184
    111 H48        -5.1190   -1.7090    0.8270 h1        1 MOL     -0.070699
    112 H49        -5.7800   -3.4480   -0.4760 hc        1 MOL     -0.006130
    113 H50        -4.2130   -3.7410    0.2780 hc        1 MOL     -0.006130
    114 N11        -6.9340   -1.1700   -0.9330 n         1 MOL     -0.535535
    115 C36        -8.1150   -0.4440   -1.4660 c3        1 MOL      0.179119
    116 C37        -9.3410   -0.5890   -0.5970 c         1 MOL      0.309654
    117 O19        -9.6240   -1.7020   -0.1860 o         1 MOL     -0.479505
    118 C38        -8.4460   -1.0860   -2.8890 c3        1 MOL     -0.194329
    119 C39        -9.4170   -0.2480   -3.6780 ca        1 MOL      0.072298
    120 C40       -10.8090   -0.3820   -3.4230 ca        1 MOL     -0.155449
    121 C41        -8.9440    0.6310   -4.6670 ca        1 MOL     -0.155449
    122 C42       -11.6800    0.4230   -4.1420 ca        1 MOL     -0.122177
    123 C43        -9.8940    1.2910   -5.4570 ca        1 MOL     -0.122177
    124 C44       -11.2350    1.2410   -5.1930 ca        1 MOL     -0.142248
    125 H51        -7.0630   -1.7970   -0.1510 hn        1 MOL      0.310851
    126 H52        -7.8620    0.6160   -1.4840 h1        1 MOL      0.066171
    127 H53        -9.0470   -1.9870   -2.8490 hc        1 MOL      0.105318
    128 H54        -7.5820   -1.1070   -3.5500 hc        1 MOL      0.105318
    129 H55       -11.2200   -1.1040   -2.7320 ha        1 MOL      0.149676
    130 H56        -7.8970    0.7150   -4.8970 ha        1 MOL      0.149676
    131 H57       -12.7300    0.3740   -3.9230 ha        1 MOL      0.104962
    132 H58        -9.4550    1.9270   -6.2180 ha        1 MOL      0.104962
    133 H59       -11.9210    1.8580   -5.7340 ha        1 MOL      0.104630
    134 N12       -10.1950    0.4860   -0.4420 n         1 MOL     -0.065143
    135 C45       -10.1090    1.8410   -1.0130 c3        1 MOL     -0.210070
    136 C46        -9.1920    2.8170   -0.2820 c         1 MOL      0.614146
    137 O20        -8.9800    3.9280   -0.6730 o         1 MOL     -0.548384
    138 C47       -11.5030    2.3880   -0.8480 c3        1 MOL      0.091653
    139 C48       -11.9490    1.7860    0.4700 c3        1 MOL      0.011659
    140 C49       -11.4290    0.3110    0.3600 c3        1 MOL     -0.239889
    141 H60        -9.8630    1.6510   -2.0540 h1        1 MOL      0.167140
    142 H61       -11.5500    3.4780   -0.9330 hc        1 MOL     -0.001262
    143 H62       -12.1090    2.0310   -1.6770 hc        1 MOL     -0.001262
    144 H63       -11.4560    2.3040    1.2890 hc        1 MOL      0.018062
    145 H64       -13.0190    1.9220    0.6190 hc        1 MOL      0.018062
    146 H65       -11.0580   -0.1910    1.2530 h1        1 MOL      0.100104
    147 H66       -12.1260   -0.3720   -0.1300 h1        1 MOL      0.100104
    148 N13        -8.4360    2.3650    0.7640 n         1 MOL     -0.615916
    149 C50        -7.2340    3.1130    1.1970 c3        1 MOL      0.164656
    150 C51        -6.8900    2.9190    2.6980 c         1 MOL      0.361932
    151 O21        -6.5650    1.8140    2.9920 o         1 MOL     -0.513644
    152 C52        -6.1450    2.6890    0.2060 c3        1 MOL      0.038077
    153 C53        -4.9370    3.6980    0.3060 c3        1 MOL     -0.331605
    154 C54        -4.1880    3.4290   -1.0170 c         1 MOL      0.703539
    155 O22        -3.1200    2.7600   -1.0490 o         1 MOL     -0.708408
    156 O23        -4.6440    4.0270   -2.0310 o         1 MOL     -0.708408
    157 H67        -8.6590    1.4680    1.1520 hn        1 MOL      0.350199
    158 H68        -7.3840    4.1880    1.0660 h1        1 MOL      0.106451
    159 H69        -6.5570    2.5280   -0.7870 hc        1 MOL      0.038620
    160 H70        -5.7340    1.7100    0.4630 hc        1 MOL      0.038620
    161 H71        -4.3380    3.3460    1.1450 hc        1 MOL      0.055937
    162 H72        -5.4230    4.6430    0.5280 hc        1 MOL      0.055937
    163 N14        -6.6700    3.9910    3.5380 n         1 MOL     -0.324992
    164 C55        -6.7090    5.4320    3.2920 c3        1 MOL     -0.158472
    165 H73        -5.8340    5.9000    3.7400 h1        1 MOL      0.082228
    166 H74        -6.7100    5.6180    2.2180 h1        1 MOL      0.082228
    167 H75        -7.6120    5.8530    3.7350 h1        1 MOL      0.082228
    168 H76        -6.3790    3.6840    4.4610 hn        1 MOL      0.271262
    169 Ca1         5.3200    0.3220   -0.2620 Ca        1 MOL      1.754755
    170 O24         5.2020    2.5990    1.2160 oh        1 MOL     -0.831595
    171 H77         5.9650    2.7480    1.7670 ho        1 MOL      0.415887
    172 H78         4.4570    2.7640    1.7850 ho        1 MOL      0.415887
    173 O25         4.3360   -0.5530   -2.6600 oh        1 MOL     -0.831595
    174 H79         4.7970   -0.8480   -3.4370 ho        1 MOL      0.415887
    175 H80         3.4940   -0.2260   -2.9870 ho        1 MOL      0.415887
    176 O26         3.8500   -0.2390    1.8160 oh        1 MOL     -0.831595
    177 H81         2.9840   -0.6010    1.6350 ho        1 MOL      0.415887
    178 H82         4.1460   -0.6860    2.6130 ho        1 MOL      0.415887
    179 O27         2.7830    1.2510   -1.0060 oh        1 MOL     -0.831595
    180 H83         2.8900    2.2010   -0.9440 ho        1 MOL      0.415887
    181 H84         1.9370    1.1330   -1.4350 ho        1 MOL      0.415887
@<TRIPOS>BOND
     1    1    2 1   
     2    1    4 1   
     3    1    5 1   
     4    1    6 1   
     5    2    3 2   
     6    2    7 1   
     7    7    8 1   
     8    7   15 1   
     9    8    9 1   
    10    8   11 1   
    11    8   16 1   
    12    9   10 2   
    13    9   19 1   
    14   11   12 1   
    15   11   17 1   
    16   11   18 1   
    17   12   13 1   
    18   12   14 1   
    19   19   20 1   
    20   19   24 1   
    21   20   21 1   
    22   20   23 1   
    23   20   25 1   
    24   21   22 2   
    25   21   29 1   
    26   23   26 1   
    27   23   27 1   
    28   23   28 1   
    29   29   30 1   
    30   29   37 1   
    31   30   31 1   
    32   30   33 1   
    33   30   38 1   
    34   31   32 2   
    35   31   41 1   
    36   33   34 1   
    37   33   39 1   
    38   33   40 1   
    39   34   35 1   
    40   34   36 1   
    41   41   42 1   
    42   41   45 1   
    43   42   43 1   
    44   42   46 1   
    45   42   47 1   
    46   43   44 2   
    47   43   48 1   
    48   48   49 1   
    49   48   56 1   
    50   49   50 1   
    51   49   52 1   
    52   49   57 1   
    53   50   51 2   
    54   50   62 1   
    55   52   53 1   
    56   52   58 1   
    57   52   59 1   
    58   53   54 1   
    59   53   55 2   
    60   54   60 1   
    61   54   61 1   
    62   62   63 1   
    63   62   66 1   
    64   63   64 1   
    65   63   67 1   
    66   63   68 1   
    67   64   65 2   
    68   64   69 1   
    69   69   70 1   
    70   69   76 1   
    71   70   71 1   
    72   70   73 1   
    73   70   77 1   
    74   71   72 2   
    75   71   83 1   
    76   73   74 1   
    77   73   75 1   
    78   73   78 1   
    79   74   80 1   
    80   74   81 1   
    81   74   82 1   
    82   75   79 1   
    83   83   84 1   
    84   83   91 1   
    85   84   85 1   
    86   84   87 1   
    87   84   92 1   
    88   85   86 2   
    89   85  102 1   
    90   87   88 1   
    91   87   89 1   
    92   87   93 1   
    93   88   90 1   
    94   88   94 1   
    95   88   95 1   
    96   89   96 1   
    97   89   97 1   
    98   89   98 1   
    99   90   99 1   
   100   90  100 1   
   101   90  101 1   
   102  102  103 1   
   103  102  110 1   
   104  103  104 1   
   105  103  106 1   
   106  103  111 1   
   107  104  105 2   
   108  104  114 1   
   109  106  107 1   
   110  106  112 1   
   111  106  113 1   
   112  107  108 1   
   113  107  109 1   
   114  114  115 1   
   115  114  125 1   
   116  115  116 1   
   117  115  118 1   
   118  115  126 1   
   119  116  117 2   
   120  116  134 1   
   121  118  119 1   
   122  118  127 1   
   123  118  128 1   
   124  119  120 ar  
   125  119  121 ar  
   126  120  122 ar  
   127  120  129 1   
   128  121  123 ar  
   129  121  130 1   
   130  122  124 ar  
   131  122  131 1   
   132  123  124 ar  
   133  123  132 1   
   134  124  133 1   
   135  134  135 1   
   136  134  140 1   
   137  135  136 1   
   138  135  138 1   
   139  135  141 1   
   140  136  137 2   
   141  136  148 1   
   142  138  139 1   
   143  138  142 1   
   144  138  143 1   
   145  139  140 1   
   146  139  144 1   
   147  139  145 1   
   148  140  146 1   
   149  140  147 1   
   150  148  149 1   
   151  148  157 1   
   152  149  150 1   
   153  149  152 1   
   154  149  158 1   
   155  150  151 2   
   156  150  163 1   
   157  152  153 1   
   158  152  159 1   
   159  152  160 1   
   160  153  154 1   
   161  153  161 1   
   162  153  162 1   
   163  154  155 1   
   164  154  156 1   
   165  163  164 1   
   166  163  168 1   
   167  164  165 1   
   168  164  166 1   
   169  164  167 1   
   170  170  171 1   
   171  170  172 1   
   172  173  174 1   
   173  173  175 1   
   174  176  177 1   
   175  176  178 1   
   176  179  180 1   
   177  179  181 1   
@<TRIPOS>SUBSTRUCTURE
     1 MOL         1 TEMP              0 ****  ****    0 ROOT
