@<TRIPOS>MOLECULE
MOL
  179   176     1     0     0
SMALL
resp


@<TRIPOS>ATOM
      1 C1         -3.2210   -1.2830    6.1930 c3        1 MOL     -0.419761
      2 C2         -3.0840   -1.3580    4.6250 c         1 MOL      0.657182
      3 O1         -3.9410   -0.8020    3.8280 o         1 MOL     -0.584910
      4 H1         -2.2600   -1.5150    6.6520 hc        1 MOL      0.118028
      5 H2         -3.5290   -0.2790    6.4830 hc        1 MOL      0.118028
      6 H3         -3.9660   -2.0040    6.5270 hc        1 MOL      0.118028
      7 N1         -1.9890   -2.0080    4.2240 n         1 MOL     -0.488110
      8 C3         -1.5390   -2.0760    2.8970 c3        1 MOL     -0.190706
      9 C4         -2.1980   -3.1600    2.0390 c         1 MOL      0.548613
     10 O2         -2.0440   -4.4140    2.2270 o         1 MOL     -0.509204
     11 C5          0.1120   -2.1680    2.9630 c3        1 MOL     -0.048892
     12 C6          0.6880   -1.8820    1.6100 c         1 MOL      0.627091
     13 O3          1.9460   -1.6880    1.5030 o         1 MOL     -0.734291
     14 O4         -0.0800   -1.6860    0.6610 o         1 MOL     -0.734291
     15 H4         -1.4400   -2.5190    4.8910 hn        1 MOL      0.331846
     16 H5         -1.7930   -1.1450    2.3870 h1        1 MOL      0.162132
     17 H6          0.5650   -3.0890    3.3420 hc        1 MOL      0.035646
     18 H7          0.4670   -1.3920    3.6440 hc        1 MOL      0.035646
     19 N2         -3.0000   -2.7140    1.0530 n         1 MOL     -0.224721
     20 C7         -3.7730   -3.5910    0.1800 c3        1 MOL     -0.157550
     21 C8         -2.9260   -4.5950   -0.4450 c         1 MOL      0.655325
     22 O5         -3.2010   -5.7760   -0.3780 o         1 MOL     -0.554017
     23 C9         -4.4760   -2.7580   -0.8240 c3        1 MOL      0.054839
     24 C10        -5.6650   -3.4700   -1.4620 c3        1 MOL     -0.151024
     25 C11        -6.7160   -3.7340   -0.3840 c3        1 MOL      0.021293
     26 C12        -7.9790   -4.1080   -1.1550 c3        1 MOL      0.078046
     27 N3         -9.0450   -4.4170   -0.1870 n4        1 MOL     -0.303934
     28 H8         -3.1630   -1.7170    1.0520 hn        1 MOL      0.206512
     29 H9         -4.4020   -4.1160    0.8960 h1        1 MOL      0.060697
     30 H10        -3.7630   -2.4680   -1.5870 hc        1 MOL      0.025430
     31 H11        -4.9030   -1.8340   -0.4240 hc        1 MOL      0.025430
     32 H12        -5.3550   -4.4250   -1.8940 hc        1 MOL      0.053566
     33 H13        -6.0300   -2.7460   -2.1910 hc        1 MOL      0.053566
     34 H14        -6.8970   -2.7760    0.1120 hc        1 MOL      0.040899
     35 H15        -6.5050   -4.6240    0.2220 hc        1 MOL      0.040899
     36 H16        -7.7050   -4.9460   -1.7950 hx        1 MOL      0.067171
     37 H17        -8.2550   -3.2570   -1.7670 hx        1 MOL      0.067171
     38 H18        -9.8680   -4.6120   -0.7290 hn        1 MOL      0.296054
     39 H19        -8.9040   -5.2720    0.3190 hn        1 MOL      0.296054
     40 H20        -9.1360   -3.6920    0.5060 hn        1 MOL      0.296054
     41 N4         -1.8300   -4.0670   -0.9880 n         1 MOL     -0.477568
     42 C13        -0.7640   -4.8650   -1.6490 c3        1 MOL      0.170078
     43 C14         0.4190   -5.3790   -0.7920 c         1 MOL      0.426961
     44 O6          1.0240   -6.4000   -1.1360 o         1 MOL     -0.572842
     45 C15        -0.2280   -4.0540   -2.7600 c3        1 MOL     -0.309003
     46 C16         0.3850   -2.7840   -2.3690 c         1 MOL      0.782732
     47 O7          1.5280   -2.8570   -1.8640 o         1 MOL     -0.727154
     48 O8         -0.1820   -1.6580   -2.4820 o         1 MOL     -0.727154
     49 H21        -1.7470   -3.0760   -0.8150 hn        1 MOL      0.282442
     50 H22        -1.2430   -5.7480   -2.0600 h1        1 MOL      0.063649
     51 H23        -1.0000   -3.7950   -3.4800 hc        1 MOL      0.071175
     52 H24         0.5130   -4.7260   -3.2100 hc        1 MOL      0.071175
     53 N5          0.7520   -4.6940    0.2740 n         1 MOL      0.101911
     54 C17         1.7590   -5.2020    1.2220 c3        1 MOL     -0.334092
     55 C18         3.1810   -4.7300    1.0650 c         1 MOL      0.680755
     56 O9          4.0100   -5.2500    1.8550 o         1 MOL     -0.585166
     57 H25         0.3400   -3.7740    0.3560 hn        1 MOL     -0.142920
     58 H26         1.8830   -6.2810    1.1360 h1        1 MOL      0.148437
     59 H27         1.4060   -4.9170    2.2080 h1        1 MOL      0.148437
     60 N6          3.4120   -3.9230    0.0090 n         1 MOL     -0.419799
     61 C19         4.6960   -3.8740   -0.6760 c3        1 MOL      0.080392
     62 C20         5.1040   -2.3990   -1.0980 c         1 MOL      0.530403
     63 O10         4.2060   -1.5760   -1.3580 o         1 MOL     -0.505562
     64 C21         4.5080   -4.8330   -1.8350 c3        1 MOL     -0.188201
     65 C22         5.5750   -4.7920   -2.8850 c         1 MOL      0.599207
     66 N7          5.2290   -4.1070   -3.9690 n         1 MOL     -0.771288
     67 O11         6.5920   -5.3130   -2.6760 o         1 MOL     -0.544965
     68 H28         2.5800   -3.6920   -0.5140 hn        1 MOL      0.276554
     69 H29         5.4790   -4.2800   -0.0350 h1        1 MOL      0.043024
     70 H30         3.5530   -4.6660   -2.3320 hc        1 MOL      0.103215
     71 H31         4.5390   -5.8230   -1.3830 hc        1 MOL      0.103215
     72 H32         4.2820   -3.7990   -4.1420 hn        1 MOL      0.350232
     73 H33         5.8970   -4.1280   -4.7280 hn        1 MOL      0.350232
     74 N8          6.3590   -1.9670   -1.1660 n         1 MOL     -0.438495
     75 C23         6.7670   -0.6210   -1.4400 c3        1 MOL      0.000439
     76 C24         6.4100    0.4030   -0.4160 c         1 MOL      0.559422
     77 O12         6.5820    0.1110    0.7990 o         1 MOL     -0.480253
     78 H34         7.0680   -2.6730   -1.0160 hn        1 MOL      0.318519
     79 H35         6.3370   -0.3160   -2.3960 h1        1 MOL      0.054228
     80 H36         7.8580   -0.5820   -1.5320 h1        1 MOL      0.054228
     81 N9          5.9870    1.5900   -0.9090 n         1 MOL     -0.561739
     82 C25         5.3400    2.4230    0.0830 c3        1 MOL      0.263195
     83 C26         4.1230    1.7780    0.8000 c         1 MOL      0.333730
     84 O13         3.6270    0.7380    0.3440 o         1 MOL     -0.390103
     85 C27         5.0280    3.7680   -0.5540 c3        1 MOL     -0.177697
     86 C28         6.1550    4.6320   -0.7640 ca        1 MOL      0.259227
     87 C29         6.9920    4.4360   -1.9140 ca        1 MOL     -0.339597
     88 C30         6.4190    5.7430    0.0130 ca        1 MOL     -0.339597
     89 C31         8.0640    5.2980   -2.2250 ca        1 MOL     -0.084960
     90 C32         7.3820    6.7110   -0.4120 ca        1 MOL     -0.084960
     91 C33         8.1730    6.4910   -1.5220 ca        1 MOL      0.169950
     92 O14         9.2880    7.2120   -1.8040 oh        1 MOL     -0.439937
     93 H37         5.8050    1.7450   -1.8910 hn        1 MOL      0.291903
     94 H38         6.0310    2.5780    0.9150 h1        1 MOL      0.021666
     95 H39         4.3970    4.2050    0.2220 hc        1 MOL      0.032229
     96 H40         4.5190    3.6200   -1.5030 hc        1 MOL      0.032229
     97 H41         6.8950    3.6160   -2.6160 ha        1 MOL      0.163438
     98 H42         5.8980    5.8610    0.9550 ha        1 MOL      0.163438
     99 H43         8.7280    5.0470   -3.0440 ha        1 MOL      0.120670
    100 H44         7.4380    7.5910    0.2010 ha        1 MOL      0.120670
    101 H45         9.2460    8.0950   -1.4130 ho        1 MOL      0.356998
    102 N10         3.7550    2.3550    1.9370 n         1 MOL     -0.409975
    103 C34         2.6360    2.0270    2.8880 c3        1 MOL      0.138693
    104 C35         1.2320    1.8060    2.2940 c         1 MOL      0.457078
    105 O15         1.0060    1.4260    1.1420 o         1 MOL     -0.478368
    106 C36         3.0100    0.8600    3.8980 c3        1 MOL      0.011725
    107 C37         2.0240    0.7510    5.0410 c3        1 MOL     -0.235693
    108 C38         4.5240    1.0320    4.3580 c3        1 MOL     -0.164038
    109 C39         1.8600    1.9430    5.9360 c3        1 MOL     -0.498487
    110 H46         4.3460    3.1640    2.0720 hn        1 MOL      0.273288
    111 H47         2.5250    2.8890    3.5440 h1        1 MOL      0.055610
    112 H48         3.1030   -0.0870    3.3620 hc        1 MOL      0.114247
    113 H49         2.3360   -0.0830    5.6850 hc        1 MOL      0.129623
    114 H50         1.0450    0.4380    4.6870 hc        1 MOL      0.129623
    115 H51         4.8710    0.5430    5.2710 hc        1 MOL      0.053399
    116 H52         5.1590    0.7960    3.5130 hc        1 MOL      0.053399
    117 H53         4.5780    2.0720    4.6700 hc        1 MOL      0.053399
    118 H54         2.6570    2.0460    6.6700 hc        1 MOL      0.144712
    119 H55         1.7160    2.8720    5.3870 hc        1 MOL      0.144712
    120 H56         1.0020    1.7110    6.5770 hc        1 MOL      0.144712
    121 N11         0.2150    2.3130    3.0050 n         1 MOL     -0.613706
    122 C40        -1.1580    1.7330    2.9160 c3        1 MOL      0.073450
    123 C41        -1.8380    1.9570    1.5740 c         1 MOL      0.272071
    124 O16        -3.0070    1.5310    1.3820 o         1 MOL     -0.474307
    125 C42        -2.0990    2.4770    3.8230 c3        1 MOL      0.048117
    126 O17        -1.4720    2.6240    5.1090 oh        1 MOL     -0.615730
    127 H57         0.4160    2.8340    3.8470 hn        1 MOL      0.329075
    128 H58        -1.2050    0.7220    3.3220 h1        1 MOL      0.256174
    129 H59        -2.9840    1.8430    3.9160 h1        1 MOL      0.106499
    130 H60        -2.2920    3.4500    3.3780 h1        1 MOL      0.106499
    131 H61        -1.1910    3.5370    5.2200 ho        1 MOL      0.394128
    132 N12        -1.2410    2.7250    0.6480 n         1 MOL     -0.249123
    133 C43        -1.7600    2.8810   -0.6600 c3        1 MOL      0.127950
    134 C44        -1.5810    1.6760   -1.6150 c         1 MOL      0.583286
    135 O18        -0.4690    1.1910   -1.7970 o         1 MOL     -0.576305
    136 C45        -1.1480    4.1500   -1.2350 c3        1 MOL     -0.482441
    137 H62        -0.3480    3.1220    0.9110 hn        1 MOL      0.260612
    138 H63        -2.8420    2.9550   -0.5890 h1        1 MOL      0.084431
    139 H64        -1.6300    4.3170   -2.2020 hc        1 MOL      0.135774
    140 H65        -1.4050    5.0010   -0.6000 hc        1 MOL      0.135774
    141 H66        -0.0620    4.0740   -1.3780 hc        1 MOL      0.135774
    142 N13        -2.6210    1.0500   -2.1670 n         1 MOL     -0.563329
    143 C46        -4.0060    1.3500   -2.0450 c3        1 MOL      0.240038
    144 C47        -4.4080    2.7210   -2.5880 c         1 MOL      0.679533
    145 O19        -3.8230    3.1770   -3.5760 o         1 MOL     -0.595556
    146 C48        -4.8870    0.3750   -2.9070 c3        1 MOL     -0.192015
    147 H67        -2.3140    0.2270   -2.6740 hn        1 MOL      0.321304
    148 H68        -4.2000    1.1640   -0.9830 h1        1 MOL      0.028988
    149 H69        -5.9360    0.3920   -2.6030 hc        1 MOL      0.060552
    150 H70        -4.8250    0.6100   -3.9640 hc        1 MOL      0.060552
    151 H71        -4.5960   -0.6730   -2.8240 hc        1 MOL      0.060552
    152 N14        -5.3690    3.4350   -1.9890 n         1 MOL     -0.538056
    153 C49        -6.1000    3.2070   -0.6510 c3        1 MOL     -0.322586
    154 C50        -6.1760    4.5060    0.1270 c         1 MOL      0.687743
    155 O20        -5.8700    4.4450    1.3270 o         1 MOL     -0.577632
    156 C51        -7.5290    2.5200   -0.7530 c3        1 MOL      0.140936
    157 C52        -8.7220    3.2180   -1.5300 c3        1 MOL     -0.282156
    158 C53        -8.3230    3.7810   -2.9400 c         1 MOL      0.744750
    159 O21        -8.7790    3.1830   -3.9580 o         1 MOL     -0.690521
    160 O22        -7.5900    4.7490   -3.0930 o         1 MOL     -0.690521
    161 H72        -5.6100    4.2480   -2.5380 hn        1 MOL      0.320025
    162 H73        -5.5320    2.5650    0.0260 h1        1 MOL      0.126126
    163 H74        -7.8850    2.3400    0.2710 hc        1 MOL      0.002071
    164 H75        -7.4280    1.5180   -1.1620 hc        1 MOL      0.002071
    165 H76        -9.0780    4.0160   -0.8820 hc        1 MOL      0.042045
    166 H77        -9.6120    2.5850   -1.6310 hc        1 MOL      0.042045
    167 N15        -6.3780    5.7000   -0.5060 n         1 MOL     -0.397013
    168 C54        -6.2590    7.0060    0.1760 c3        1 MOL     -0.089346
    169 H78        -7.2430    7.4740    0.2370 h1        1 MOL      0.068082
    170 H79        -5.8660    6.8580    1.1810 h1        1 MOL      0.068082
    171 H80        -5.5840    7.6510   -0.3870 h1        1 MOL      0.068082
    172 H81        -6.4150    5.6850   -1.5170 hn        1 MOL      0.297067
    173 Ca1         1.5950   -0.4460   -0.9920 Ca        1 MOL      1.746357
    174 O23         2.4310    1.8770   -2.0540 oh        1 MOL     -0.859812
    175 H82         3.3330    1.7680   -2.3520 ho        1 MOL      0.412126
    176 H83         2.0620    2.5390   -2.6370 ho        1 MOL      0.412126
    177 O24         2.6970   -0.5450   -3.6560 oh        1 MOL     -0.859812
    178 H84         2.1100   -0.2900   -4.3730 ho        1 MOL      0.412126
    179 H85         3.5580   -0.5910   -4.0560 ho        1 MOL      0.412126
@<TRIPOS>BOND
     1    1    2 1   
     2    1    4 1   
     3    1    5 1   
     4    1    6 1   
     5    2    3 2   
     6    2    7 1   
     7    7    8 1   
     8    7   15 1   
     9    8    9 1   
    10    8   11 1   
    11    8   16 1   
    12    9   10 2   
    13    9   19 1   
    14   11   12 1   
    15   11   17 1   
    16   11   18 1   
    17   12   13 1   
    18   12   14 1   
    19   19   20 1   
    20   19   28 1   
    21   20   21 1   
    22   20   23 1   
    23   20   29 1   
    24   21   22 2   
    25   21   41 1   
    26   23   24 1   
    27   23   30 1   
    28   23   31 1   
    29   24   25 1   
    30   24   32 1   
    31   24   33 1   
    32   25   26 1   
    33   25   34 1   
    34   25   35 1   
    35   26   27 1   
    36   26   36 1   
    37   26   37 1   
    38   27   38 1   
    39   27   39 1   
    40   27   40 1   
    41   41   42 1   
    42   41   49 1   
    43   42   43 1   
    44   42   45 1   
    45   42   50 1   
    46   43   44 2   
    47   43   53 1   
    48   45   46 1   
    49   45   51 1   
    50   45   52 1   
    51   46   47 1   
    52   46   48 1   
    53   53   54 1   
    54   53   57 1   
    55   54   55 1   
    56   54   58 1   
    57   54   59 1   
    58   55   56 2   
    59   55   60 1   
    60   60   61 1   
    61   60   68 1   
    62   61   62 1   
    63   61   64 1   
    64   61   69 1   
    65   62   63 2   
    66   62   74 1   
    67   64   65 1   
    68   64   70 1   
    69   64   71 1   
    70   65   66 1   
    71   65   67 2   
    72   66   72 1   
    73   66   73 1   
    74   74   75 1   
    75   74   78 1   
    76   75   76 1   
    77   75   79 1   
    78   75   80 1   
    79   76   77 2   
    80   76   81 1   
    81   81   82 1   
    82   81   93 1   
    83   82   83 1   
    84   82   85 1   
    85   82   94 1   
    86   83   84 2   
    87   83  102 1   
    88   85   86 1   
    89   85   95 1   
    90   85   96 1   
    91   86   87 ar  
    92   86   88 ar  
    93   87   89 ar  
    94   87   97 1   
    95   88   90 ar  
    96   88   98 1   
    97   89   91 ar  
    98   89   99 1   
    99   90   91 ar  
   100   90  100 1   
   101   91   92 1   
   102   92  101 1   
   103  102  103 1   
   104  102  110 1   
   105  103  104 1   
   106  103  106 1   
   107  103  111 1   
   108  104  105 2   
   109  104  121 1   
   110  106  107 1   
   111  106  108 1   
   112  106  112 1   
   113  107  109 1   
   114  107  113 1   
   115  107  114 1   
   116  108  115 1   
   117  108  116 1   
   118  108  117 1   
   119  109  118 1   
   120  109  119 1   
   121  109  120 1   
   122  121  122 1   
   123  121  127 1   
   124  122  123 1   
   125  122  125 1   
   126  122  128 1   
   127  123  124 2   
   128  123  132 1   
   129  125  126 1   
   130  125  129 1   
   131  125  130 1   
   132  126  131 1   
   133  132  133 1   
   134  132  137 1   
   135  133  134 1   
   136  133  136 1   
   137  133  138 1   
   138  134  135 2   
   139  134  142 1   
   140  136  139 1   
   141  136  140 1   
   142  136  141 1   
   143  142  143 1   
   144  142  147 1   
   145  143  144 1   
   146  143  146 1   
   147  143  148 1   
   148  144  145 2   
   149  144  152 1   
   150  146  149 1   
   151  146  150 1   
   152  146  151 1   
   153  152  153 1   
   154  152  161 1   
   155  153  154 1   
   156  153  156 1   
   157  153  162 1   
   158  154  155 2   
   159  154  167 1   
   160  156  157 1   
   161  156  163 1   
   162  156  164 1   
   163  157  158 1   
   164  157  165 1   
   165  157  166 1   
   166  158  159 1   
   167  158  160 1   
   168  167  168 1   
   169  167  172 1   
   170  168  169 1   
   171  168  170 1   
   172  168  171 1   
   173  174  175 1   
   174  174  176 1   
   175  177  178 1   
   176  177  179 1   
@<TRIPOS>SUBSTRUCTURE
     1 MOL         1 TEMP              0 ****  ****    0 ROOT
