@<TRIPOS>MOLECULE
MOL
  185   180     1     0     0
SMALL
resp


@<TRIPOS>ATOM
      1 C1          5.0020   -0.7550    5.5280 c3        1 MOL     -0.372094
      2 C2          3.9560   -0.5960    4.3940 c         1 MOL      0.657655
      3 O1          2.8410   -0.1890    4.6600 o         1 MOL     -0.567243
      4 H1          4.5480   -1.2770    6.3690 hc        1 MOL      0.098242
      5 H2          5.8530   -1.3300    5.1600 hc        1 MOL      0.098242
      6 H3          5.3400    0.2300    5.8510 hc        1 MOL      0.098242
      7 N1          4.3040   -0.8750    3.1130 n         1 MOL     -0.443845
      8 C3          3.4220   -0.8330    1.9270 c3        1 MOL     -0.036770
      9 C4          3.0980   -2.1850    1.2970 c         1 MOL      0.672282
     10 O2          2.1120   -2.2800    0.5490 o         1 MOL     -0.521668
     11 C5          4.0120    0.2200    0.8910 c3        1 MOL     -0.244339
     12 C6          5.4610    0.0010    0.4900 c         1 MOL      0.712928
     13 O3          5.8270   -1.1520    0.1490 o         1 MOL     -0.668588
     14 O4          6.1700    0.9850    0.6680 o         1 MOL     -0.668588
     15 H4          5.2530   -1.1750    2.9200 hn        1 MOL      0.289671
     16 H5          2.4490   -0.4000    2.1920 h1        1 MOL      0.076817
     17 H6          3.9520    1.1990    1.3590 hc        1 MOL      0.081946
     18 H7          3.4220    0.2080   -0.0270 hc        1 MOL      0.081946
     19 N2          3.9470   -3.2000    1.6220 n         1 MOL     -0.665982
     20 C7          3.8440   -4.6500    1.2860 c3        1 MOL      0.085209
     21 C8          4.1550   -4.9200   -0.2430 c         1 MOL      0.460745
     22 O5          4.1840   -6.1220   -0.5580 o         1 MOL     -0.531968
     23 C9          4.7130   -5.5240    2.2110 c3        1 MOL      0.004783
     24 C10         4.2650   -5.5560    3.6790 c3        1 MOL      0.076893
     25 C11         5.1250   -6.1580    4.7760 c3        1 MOL     -0.065510
     26 C12         5.4380   -7.5920    4.4990 c3        1 MOL      0.054770
     27 N3          6.2500   -8.1200    5.5490 n4        1 MOL     -0.391558
     28 H8          4.7850   -3.0030    2.1500 hn        1 MOL      0.305474
     29 H9          2.7910   -4.9060    1.4450 h1        1 MOL      0.107890
     30 H10         5.7610   -5.2510    2.1720 hc        1 MOL      0.006228
     31 H11         4.6530   -6.5460    1.8420 hc        1 MOL      0.006228
     32 H12         3.3380   -6.1220    3.6780 hc        1 MOL     -0.007063
     33 H13         4.0100   -4.5400    3.9710 hc        1 MOL     -0.007063
     34 H14         4.5300   -6.1540    5.6940 hc        1 MOL      0.024339
     35 H15         5.9120   -5.4160    4.9480 hc        1 MOL      0.024339
     36 H16         5.9170   -7.6780    3.5290 hx        1 MOL      0.099249
     37 H17         4.4900   -8.1280    4.4790 hx        1 MOL      0.099249
     38 H18         5.8770   -7.7230    6.4010 hn        1 MOL      0.337815
     39 H19         6.2990   -9.1250    5.5130 hn        1 MOL      0.337815
     40 H20         7.2200   -7.8470    5.4960 hn        1 MOL      0.337815
     41 N4          4.3810   -3.8880   -1.0600 n         1 MOL     -0.277774
     42 C13         4.4920   -3.9590   -2.4930 c3        1 MOL     -0.054010
     43 C14         4.9380   -2.6600   -3.2460 c         1 MOL      0.507160
     44 O6          4.9770   -2.6600   -4.4530 o         1 MOL     -0.526211
     45 C15         3.0940   -4.4120   -2.9890 c3        1 MOL     -0.137067
     46 C16         1.9780   -3.5370   -2.4220 c         1 MOL      0.730025
     47 O7          1.9700   -2.2380   -2.5390 o         1 MOL     -0.765495
     48 O8          1.0300   -4.0410   -1.7690 o         1 MOL     -0.765495
     49 H21         4.5600   -3.0120   -0.5910 hn        1 MOL      0.233705
     50 H22         5.2250   -4.7530   -2.6600 h1        1 MOL      0.093175
     51 H23         3.0460   -5.4640   -2.7370 hc        1 MOL      0.061805
     52 H24         3.0450   -4.3590   -4.0690 hc        1 MOL      0.061805
     53 N5          5.2850   -1.6520   -2.4790 n         1 MOL     -0.375114
     54 C17         5.4660   -0.2390   -2.9210 c3        1 MOL      0.071368
     55 C18         6.9760    0.2110   -3.0850 c         1 MOL      0.536180
     56 O9          7.8730   -0.5890   -3.2250 o         1 MOL     -0.534615
     57 H25         5.1390   -1.7870   -1.4850 hn        1 MOL      0.225235
     58 H26         5.1470    0.5020   -2.1930 h1        1 MOL      0.035201
     59 H27         4.8960   -0.1060   -3.8400 h1        1 MOL      0.035201
     60 N6          7.2670    1.4800   -3.1250 n         1 MOL     -0.498350
     61 C19         6.3610    2.6200   -3.0440 c3        1 MOL      0.237320
     62 C20         6.6950    3.4180   -1.8240 c         1 MOL      0.603311
     63 O10         7.8100    3.8640   -1.6770 o         1 MOL     -0.536836
     64 C21         6.6100    3.5440   -4.2140 c3        1 MOL     -0.371537
     65 C22         5.6590    4.7480   -4.0990 c         1 MOL      0.716120
     66 N7          4.4880    4.7050   -4.7030 n         1 MOL     -0.794819
     67 O11         6.0090    5.7480   -3.5420 o         1 MOL     -0.549901
     68 H28         8.2510    1.7050   -3.1390 hn        1 MOL      0.312742
     69 H29         5.3270    2.3160   -3.0860 h1        1 MOL     -0.013641
     70 H30         6.4060    3.0150   -5.1420 hc        1 MOL      0.111060
     71 H31         7.6340    3.8960   -4.1610 hc        1 MOL      0.111060
     72 H32         4.1350    3.8840   -5.1790 hn        1 MOL      0.353870
     73 H33         3.8970    5.5210   -4.6560 hn        1 MOL      0.353870
     74 N8          5.6720    3.8130   -1.0030 n         1 MOL     -0.510191
     75 C23         4.1740    3.4370   -1.1210 c3        1 MOL      0.056169
     76 C24         3.2290    3.8750    0.0350 c         1 MOL      0.634937
     77 O12         3.6120    4.6320    0.9800 o         1 MOL     -0.517649
     78 H34         5.9890    4.3440   -0.2040 hn        1 MOL      0.320512
     79 H35         4.1350    2.3420   -1.0700 h1        1 MOL      0.012494
     80 H36         3.7380    3.6850   -2.0800 h1        1 MOL      0.012494
     81 N9          1.9730    3.4580   -0.1010 n         1 MOL     -0.665194
     82 C25         0.8750    4.1360    0.6850 c3        1 MOL      0.344415
     83 C26        -0.4660    3.3780    0.6650 c         1 MOL      0.463095
     84 O13        -0.8050    2.6450   -0.2830 o         1 MOL     -0.495177
     85 C27         0.6590    5.6490    0.3440 c3        1 MOL     -0.233069
     86 C28        -0.0760    6.4390    1.3740 ca        1 MOL      0.062906
     87 C29        -1.3360    7.0470    1.1600 ca        1 MOL     -0.075039
     88 C30         0.5380    6.5790    2.5810 ca        1 MOL     -0.075039
     89 C31        -1.9300    7.8080    2.1890 ca        1 MOL     -0.346312
     90 C32        -0.0460    7.3900    3.6000 ca        1 MOL     -0.346312
     91 C33        -1.3050    7.9670    3.4360 ca        1 MOL      0.463574
     92 O14        -1.8600    8.6130    4.4920 oh        1 MOL     -0.538202
     93 H37         1.7960    2.8130   -0.8610 hn        1 MOL      0.268526
     94 H38         1.1380    4.0980    1.7490 h1        1 MOL      0.004065
     95 H39         0.0560    5.7530   -0.5530 hc        1 MOL      0.089414
     96 H40         1.6490    6.0990    0.2590 hc        1 MOL      0.089414
     97 H41        -1.8310    6.8300    0.2240 ha        1 MOL      0.123339
     98 H42         1.5100    6.1270    2.7070 ha        1 MOL      0.123339
     99 H43        -2.8900    8.2750    1.9920 ha        1 MOL      0.155257
    100 H44         0.3720    7.4460    4.5910 ha        1 MOL      0.155257
    101 H45        -1.5100    8.4110    5.3580 ho        1 MOL      0.384565
    102 N10        -1.3150    3.6150    1.6530 n         1 MOL     -0.381252
    103 C34        -2.6420    2.9010    1.8430 c3        1 MOL     -0.099175
    104 C35        -3.6400    3.3000    0.6860 c         1 MOL      0.523670
    105 O15        -3.4710    4.2940   -0.0770 o         1 MOL     -0.470658
    106 C36        -3.3070    3.1150    3.2370 c3        1 MOL      0.294142
    107 C37        -2.8790    2.0870    4.2660 c3        1 MOL      0.016640
    108 C38        -3.1840    4.5100    3.8430 c3        1 MOL     -0.233672
    109 C39        -3.6270    2.1270    5.5660 c3        1 MOL     -0.233355
    110 H46        -1.0740    4.3490    2.3080 hn        1 MOL      0.192952
    111 H47        -2.4410    1.8380    1.7050 h1        1 MOL      0.010607
    112 H48        -4.3710    2.9630    3.0670 hc        1 MOL     -0.043533
    113 H49        -1.8110    2.1410    4.4760 hc        1 MOL      0.014855
    114 H50        -3.0920    1.1390    3.7690 hc        1 MOL      0.014855
    115 H51        -3.3840    5.2830    3.0970 hc        1 MOL      0.057418
    116 H52        -3.6670    4.6630    4.8120 hc        1 MOL      0.057418
    117 H53        -2.1220    4.5670    4.0930 hc        1 MOL      0.057418
    118 H54        -4.6810    2.0650    5.3050 hc        1 MOL      0.065135
    119 H55        -3.4250    1.2160    6.1310 hc        1 MOL      0.065135
    120 H56        -3.3060    2.9140    6.2460 hc        1 MOL      0.065135
    121 N11        -4.5960    2.3800    0.4760 n         1 MOL     -0.406372
    122 C40        -5.5750    2.5330   -0.6030 c3        1 MOL      0.016508
    123 C41        -5.8410    1.3560   -1.4680 c         1 MOL      0.703127
    124 O16        -5.3810    0.2710   -1.1230 o         1 MOL     -0.519314
    125 C42        -6.9010    3.0530   -0.0300 c3        1 MOL      0.012141
    126 O17        -7.4880    2.0590    0.8550 oh        1 MOL     -0.554670
    127 H57        -4.7220    1.5680    1.0550 hn        1 MOL      0.298164
    128 H58        -5.2270    3.2980   -1.2900 h1        1 MOL      0.065745
    129 H59        -7.5450    3.2090   -0.8930 h1        1 MOL      0.052611
    130 H60        -6.8210    4.0260    0.4470 h1        1 MOL      0.052611
    131 H61        -8.1490    2.6640    1.1970 ho        1 MOL      0.394850
    132 N12        -6.4720    1.4730   -2.6730 n         1 MOL     -0.602617
    133 C43        -6.8170    0.4140   -3.6720 c3        1 MOL      0.163830
    134 C44        -7.6840   -0.8200   -3.2070 c         1 MOL      0.341441
    135 O18        -7.4910   -1.8720   -3.8150 o         1 MOL     -0.400414
    136 C45        -5.5030    0.0690   -4.4040 c3        1 MOL     -0.475162
    137 H62        -6.8730    2.3850   -2.8310 hn        1 MOL      0.301078
    138 H63        -7.4620    0.8460   -4.4240 h1        1 MOL      0.095504
    139 H64        -4.9640    0.9710   -4.6840 hc        1 MOL      0.161257
    140 H65        -4.8190   -0.5270   -3.7850 hc        1 MOL      0.161257
    141 H66        -5.7250   -0.5920   -5.2410 hc        1 MOL      0.161257
    142 N13        -8.6000   -0.6840   -2.2350 n         1 MOL     -0.426628
    143 C46        -9.4140   -1.7060   -1.5830 c3        1 MOL      0.240296
    144 C47        -8.5330   -2.9300   -1.2210 c         1 MOL      0.355011
    145 O19        -8.9690   -4.0760   -1.3410 o         1 MOL     -0.440936
    146 C48       -10.6290   -2.0130   -2.5340 c3        1 MOL     -0.281691
    147 H67        -8.7190    0.2620   -1.9130 hn        1 MOL      0.250424
    148 H68        -9.8130   -1.2520   -0.6690 h1        1 MOL      0.020258
    149 H69       -10.2720   -2.5680   -3.4050 hc        1 MOL      0.084066
    150 H70       -11.2810   -2.7170   -2.0150 hc        1 MOL      0.084066
    151 H71       -11.2130   -1.1100   -2.7490 hc        1 MOL      0.084066
    152 N14        -7.3490   -2.6310   -0.6180 n         1 MOL     -0.306491
    153 C49        -6.4540   -3.6850   -0.1970 c3        1 MOL     -0.208404
    154 C50        -6.9150   -4.3030    1.1810 c         1 MOL      0.486608
    155 O20        -6.8440   -5.5190    1.3530 o         1 MOL     -0.522574
    156 C51        -4.9610   -3.1070   -0.2990 c3        1 MOL      0.522910
    157 C52        -3.9290   -4.2580   -0.3900 c3        1 MOL     -0.461709
    158 C53        -2.5490   -3.7650   -0.6340 c         1 MOL      0.870738
    159 O21        -2.2630   -3.3590   -1.7980 o         1 MOL     -0.765025
    160 O22        -1.7550   -3.6670    0.3190 o         1 MOL     -0.765025
    161 H72        -7.1430   -1.6960   -0.2910 hn        1 MOL      0.199443
    162 H73        -6.5170   -4.4680   -0.9560 h1        1 MOL      0.165200
    163 H74        -4.7140   -2.4990    0.5760 hc        1 MOL     -0.123818
    164 H75        -4.8160   -2.4090   -1.1210 hc        1 MOL     -0.123818
    165 H76        -4.0720   -4.8780   -1.2730 hc        1 MOL      0.085746
    166 H77        -3.8960   -4.8220    0.5490 hc        1 MOL      0.085746
    167 N15        -7.1890   -3.4770    2.1560 n         1 MOL     -0.192374
    168 C54        -7.6010   -3.8680    3.4500 c3        1 MOL     -0.362944
    169 H78        -7.2980   -3.1100    4.1720 h1        1 MOL      0.136429
    170 H79        -8.6850   -3.9750    3.4700 h1        1 MOL      0.136429
    171 H80        -7.1360   -4.8200    3.7080 h1        1 MOL      0.136429
    172 H81        -7.2090   -2.5040    1.9080 hn        1 MOL      0.215628
    173 Ca1        -0.1780   -1.8770   -1.0610 Ca        1 MOL      1.707902
    174 O23        -2.5530   -0.2930   -0.9880 oh        1 MOL     -0.822874
    175 H82        -2.7090    0.0750   -0.1230 ho        1 MOL      0.401688
    176 H83        -3.4260   -0.5010   -1.3240 ho        1 MOL      0.401688
    177 O24        -0.8980   -0.9730   -3.4920 oh        1 MOL     -0.822874
    178 H84        -0.2030   -1.2290   -4.0970 ho        1 MOL      0.401688
    179 H85        -1.4570   -0.3850   -4.0100 ho        1 MOL      0.401688
    180 O25         0.8890    0.7160   -0.9870 oh        1 MOL     -0.822874
    181 H86         1.3240    1.0700   -1.7610 ho        1 MOL      0.401688
    182 H87         0.4630    1.4710   -0.5820 ho        1 MOL      0.401688
    183 O26        -0.3090   -0.7290    1.3580 oh        1 MOL     -0.822874
    184 H88         0.0710   -0.9340    2.2010 ho        1 MOL      0.401688
    185 H89        -0.2780    0.2270    1.2970 ho        1 MOL      0.401688
@<TRIPOS>BOND
     1    1    2 1   
     2    1    4 1   
     3    1    5 1   
     4    1    6 1   
     5    2    3 2   
     6    2    7 1   
     7    7    8 1   
     8    7   15 1   
     9    8    9 1   
    10    8   11 1   
    11    8   16 1   
    12    9   10 2   
    13    9   19 1   
    14   11   12 1   
    15   11   17 1   
    16   11   18 1   
    17   12   13 1   
    18   12   14 1   
    19   19   20 1   
    20   19   28 1   
    21   20   21 1   
    22   20   23 1   
    23   20   29 1   
    24   21   22 2   
    25   21   41 1   
    26   23   24 1   
    27   23   30 1   
    28   23   31 1   
    29   24   25 1   
    30   24   32 1   
    31   24   33 1   
    32   25   26 1   
    33   25   34 1   
    34   25   35 1   
    35   26   27 1   
    36   26   36 1   
    37   26   37 1   
    38   27   38 1   
    39   27   39 1   
    40   27   40 1   
    41   41   42 1   
    42   41   49 1   
    43   42   43 1   
    44   42   45 1   
    45   42   50 1   
    46   43   44 2   
    47   43   53 1   
    48   45   46 1   
    49   45   51 1   
    50   45   52 1   
    51   46   47 1   
    52   46   48 1   
    53   53   54 1   
    54   53   57 1   
    55   54   55 1   
    56   54   58 1   
    57   54   59 1   
    58   55   56 2   
    59   55   60 1   
    60   60   61 1   
    61   60   68 1   
    62   61   62 1   
    63   61   64 1   
    64   61   69 1   
    65   62   63 2   
    66   62   74 1   
    67   64   65 1   
    68   64   70 1   
    69   64   71 1   
    70   65   66 1   
    71   65   67 2   
    72   66   72 1   
    73   66   73 1   
    74   74   75 1   
    75   74   78 1   
    76   75   76 1   
    77   75   79 1   
    78   75   80 1   
    79   76   77 2   
    80   76   81 1   
    81   81   82 1   
    82   81   93 1   
    83   82   83 1   
    84   82   85 1   
    85   82   94 1   
    86   83   84 2   
    87   83  102 1   
    88   85   86 1   
    89   85   95 1   
    90   85   96 1   
    91   86   87 ar  
    92   86   88 ar  
    93   87   89 ar  
    94   87   97 1   
    95   88   90 ar  
    96   88   98 1   
    97   89   91 ar  
    98   89   99 1   
    99   90   91 ar  
   100   90  100 1   
   101   91   92 1   
   102   92  101 1   
   103  102  103 1   
   104  102  110 1   
   105  103  104 1   
   106  103  106 1   
   107  103  111 1   
   108  104  105 2   
   109  104  121 1   
   110  106  107 1   
   111  106  108 1   
   112  106  112 1   
   113  107  109 1   
   114  107  113 1   
   115  107  114 1   
   116  108  115 1   
   117  108  116 1   
   118  108  117 1   
   119  109  118 1   
   120  109  119 1   
   121  109  120 1   
   122  121  122 1   
   123  121  127 1   
   124  122  123 1   
   125  122  125 1   
   126  122  128 1   
   127  123  124 2   
   128  123  132 1   
   129  125  126 1   
   130  125  129 1   
   131  125  130 1   
   132  126  131 1   
   133  132  133 1   
   134  132  137 1   
   135  133  134 1   
   136  133  136 1   
   137  133  138 1   
   138  134  135 2   
   139  134  142 1   
   140  136  139 1   
   141  136  140 1   
   142  136  141 1   
   143  142  143 1   
   144  142  147 1   
   145  143  144 1   
   146  143  146 1   
   147  143  148 1   
   148  144  145 2   
   149  144  152 1   
   150  146  149 1   
   151  146  150 1   
   152  146  151 1   
   153  152  153 1   
   154  152  161 1   
   155  153  154 1   
   156  153  156 1   
   157  153  162 1   
   158  154  155 2   
   159  154  167 1   
   160  156  157 1   
   161  156  163 1   
   162  156  164 1   
   163  157  158 1   
   164  157  165 1   
   165  157  166 1   
   166  158  159 1   
   167  158  160 1   
   168  167  168 1   
   169  167  172 1   
   170  168  169 1   
   171  168  170 1   
   172  168  171 1   
   173  174  175 1   
   174  174  176 1   
   175  177  178 1   
   176  177  179 1   
   177  180  181 1   
   178  180  182 1   
   179  183  184 1   
   180  183  185 1   
@<TRIPOS>SUBSTRUCTURE
     1 MOL         1 TEMP              0 ****  ****    0 ROOT
