@<TRIPOS>MOLECULE
MOL
  178   175     1     0     0
SMALL
resp


@<TRIPOS>ATOM
      1 C1          9.3820   -5.7250    4.1160 c3        1 MOL     -0.411458
      2 C2          8.2740   -5.4360    3.0580 c         1 MOL      0.648998
      3 O1          7.0740   -5.7380    3.1760 o         1 MOL     -0.548568
      4 H1         10.2960   -6.0330    3.6090 hc        1 MOL      0.109340
      5 H2          9.5750   -4.8220    4.6960 hc        1 MOL      0.109340
      6 H3          9.0500   -6.5220    4.7810 hc        1 MOL      0.109340
      7 N1          8.5640   -4.8180    1.8640 n         1 MOL     -0.489350
      8 C3          9.8760   -4.3360    1.3300 c3        1 MOL      0.033601
      9 C4          9.8940   -4.1980   -0.2510 c         1 MOL      0.490922
     10 O2          8.9790   -4.7530   -0.8840 o         1 MOL     -0.489660
     11 C5         10.2010   -2.9550    1.8880 c3        1 MOL     -0.045768
     12 C6          9.1550   -1.9500    1.5650 c         1 MOL      0.568912
     13 O3          9.1860   -1.4420    0.4410 o         1 MOL     -0.653900
     14 O4          8.2610   -1.5890    2.3350 o         1 MOL     -0.653900
     15 H4          7.8230   -4.8250    1.1840 hn        1 MOL      0.389876
     16 H5         10.7370   -4.9220    1.6290 h1        1 MOL      0.040436
     17 H6         11.1640   -2.6310    1.4790 hc        1 MOL     -0.012808
     18 H7         10.2400   -3.0280    2.9780 hc        1 MOL     -0.012808
     19 N2         10.8570   -3.4860   -0.8640 n         1 MOL     -0.598776
     20 C7         11.0060   -3.3300   -2.3060 c3        1 MOL      0.476376
     21 C8          9.7060   -2.8630   -3.0480 c         1 MOL      0.215251
     22 O5          9.6510   -3.0310   -4.2990 o         1 MOL     -0.544153
     23 C9         11.6300   -4.5590   -2.8820 c3        1 MOL     -0.413852
     24 H8         11.5870   -3.0900   -0.2880 hn        1 MOL      0.322889
     25 H9         11.6840   -2.4900   -2.4340 h1        1 MOL     -0.021370
     26 H10        10.9830   -5.4280   -2.7430 hc        1 MOL      0.101929
     27 H11        11.8530   -4.3020   -3.9250 hc        1 MOL      0.101929
     28 H12        12.5590   -4.7890   -2.3480 hc        1 MOL      0.101929
     29 N3          8.6900   -2.3470   -2.3420 n         1 MOL      0.214006
     30 C10         7.4240   -1.7780   -2.8660 c3        1 MOL     -0.082799
     31 C11         7.3550   -0.2170   -2.6160 c         1 MOL      0.309131
     32 O6          8.1970    0.3930   -1.9040 o         1 MOL     -0.515064
     33 C12         6.1870   -2.5420   -2.2260 c3        1 MOL     -0.171485
     34 C13         6.1400   -2.7550   -0.6580 c         1 MOL      0.800170
     35 O7          6.0810   -1.7530    0.0840 o         1 MOL     -0.702035
     36 O8          6.2190   -3.9370   -0.1820 o         1 MOL     -0.702035
     37 H13         8.9690   -2.1150   -1.3990 hn        1 MOL     -0.077586
     38 H14         7.3210   -1.9370   -3.9390 h1        1 MOL      0.091350
     39 H15         6.1390   -3.4970   -2.7500 hc        1 MOL      0.035721
     40 H16         5.1880   -2.1340   -2.3530 hc        1 MOL      0.035721
     41 N4          6.3310    0.4660   -3.1010 n         1 MOL     -0.162736
     42 C14         6.0500    1.9150   -2.9690 c3        1 MOL     -0.423884
     43 C15         5.4970    2.2530   -1.5530 c         1 MOL      0.544191
     44 O9          5.5220    1.3730   -0.6480 o         1 MOL     -0.566352
     45 H17         5.7560   -0.0580   -3.7510 hn        1 MOL      0.256880
     46 H18         5.2880    2.2360   -3.6800 h1        1 MOL      0.190753
     47 H19         6.9890    2.4490   -3.1560 h1        1 MOL      0.190753
     48 N5          4.9940    3.4420   -1.2430 n         1 MOL     -0.322464
     49 C16         4.6610    3.9650    0.0530 c3        1 MOL     -0.047320
     50 C17         3.3480    4.7180    0.1480 c         1 MOL      0.595380
     51 O10         3.0900    5.4950    1.0380 o         1 MOL     -0.517311
     52 C18         5.8700    4.8040    0.5490 c3        1 MOL     -0.257684
     53 C19         7.1970    4.0770    0.7460 c         1 MOL      0.603284
     54 N6          8.3180    4.7930    0.7190 n         1 MOL     -0.717408
     55 O11         7.3190    2.9040    1.0570 o         1 MOL     -0.522853
     56 H20         5.0070    4.1020   -2.0030 hn        1 MOL      0.234540
     57 H21         4.4480    3.1050    0.7050 h1        1 MOL      0.131660
     58 H22         5.6710    5.1420    1.5600 hc        1 MOL      0.123647
     59 H23         5.9900    5.7070   -0.0540 hc        1 MOL      0.123647
     60 H24         8.3900    5.7940    0.6340 hn        1 MOL      0.331425
     61 H25         9.1980    4.3400    0.9370 hn        1 MOL      0.331425
     62 N7          2.4530    4.4900   -0.8260 n         1 MOL     -0.481079
     63 C20         0.9920    4.8010   -0.7250 c3        1 MOL      0.170963
     64 C21         0.7190    6.2870   -0.8300 c         1 MOL      0.451607
     65 O12         1.4710    7.0420   -1.4970 o         1 MOL     -0.541349
     66 H26         2.6760    3.8730   -1.6060 hn        1 MOL      0.272882
     67 H27         0.6100    4.5640    0.2760 h1        1 MOL      0.025791
     68 H28         0.4440    4.2900   -1.5080 h1        1 MOL      0.025791
     69 N8         -0.4080    6.8770   -0.2620 n         1 MOL     -0.346393
     70 C22        -1.5010    6.2990    0.4860 c3        1 MOL     -0.146792
     71 C23        -2.2690    5.1760   -0.2380 c         1 MOL      0.362577
     72 O13        -2.7780    5.2810   -1.3420 o         1 MOL     -0.528938
     73 C24        -2.4450    7.4490    0.8140 c3        1 MOL      0.419190
     74 C25        -3.4870    7.0600    1.8410 c3        1 MOL     -0.183594
     75 O14        -1.8530    8.6230    1.2710 oh        1 MOL     -0.628710
     76 H29        -0.5650    7.8570   -0.4690 hn        1 MOL      0.263961
     77 H30        -1.0820    5.8880    1.4100 h1        1 MOL      0.120825
     78 H31        -3.0360    7.6600   -0.0850 h1        1 MOL     -0.010265
     79 H32        -2.5840    9.2490    1.3140 ho        1 MOL      0.382230
     80 H33        -4.3800    7.6790    1.7340 hc        1 MOL      0.039889
     81 H34        -3.7810    6.0290    1.6320 hc        1 MOL      0.039889
     82 H35        -3.0990    7.1390    2.8520 hc        1 MOL      0.039889
     83 N9         -2.3330    4.0250    0.4120 n         1 MOL      0.016589
     84 C26        -3.1200    2.8760    0.0350 c3        1 MOL      0.022125
     85 C27        -3.9340    2.3560    1.2870 c         1 MOL      0.408269
     86 O15        -3.3210    2.2760    2.4150 o         1 MOL     -0.561595
     87 C28        -2.2570    1.7850   -0.5850 c3        1 MOL      0.089448
     88 C29        -0.9300    1.4120    0.0690 c3        1 MOL      0.200957
     89 C30        -1.8780    2.2280   -2.0360 c3        1 MOL     -0.416364
     90 C31        -0.2480    0.0950   -0.3430 c3        1 MOL     -0.232805
     91 H36        -1.9620    3.9420    1.3460 hn        1 MOL      0.063373
     92 H37        -3.8510    3.2380   -0.7020 h1        1 MOL      0.136111
     93 H38        -2.8260    0.8550   -0.5930 hc        1 MOL      0.023542
     94 H39        -1.1480    1.1540    1.1000 hc        1 MOL     -0.063764
     95 H40        -0.2420    2.2460   -0.0020 hc        1 MOL     -0.063764
     96 H41        -1.0890    2.9770   -1.9890 hc        1 MOL      0.098161
     97 H42        -1.6720    1.4430   -2.7730 hc        1 MOL      0.098161
     98 H43        -2.7010    2.8050   -2.4490 hc        1 MOL      0.098161
     99 H44        -0.6730   -0.7790    0.1640 hc        1 MOL      0.057077
    100 H45        -0.4240   -0.1170   -1.3910 hc        1 MOL      0.057077
    101 H46         0.8360    0.1490   -0.1690 hc        1 MOL      0.057077
    102 N10        -5.2020    2.0320    1.1760 n         1 MOL     -0.349797
    103 C32        -6.0640    1.7380   -0.0270 c3        1 MOL      0.014292
    104 C33        -7.1450    0.6710    0.0610 c         1 MOL      0.580626
    105 O16        -7.3970    0.0780    1.1040 o         1 MOL     -0.491621
    106 C34        -6.6640    3.1570   -0.4200 c3        1 MOL     -0.298165
    107 C35        -7.4610    3.7470    0.7740 c         1 MOL      0.731570
    108 O17        -8.1630    3.0380    1.5290 o         1 MOL     -0.709863
    109 O18        -7.5110    5.0100    0.8530 o         1 MOL     -0.709863
    110 H47        -5.5430    1.7280    2.0700 hn        1 MOL      0.300497
    111 H48        -5.4300    1.3950   -0.8480 h1        1 MOL      0.042585
    112 H49        -7.3550    3.1630   -1.2620 hc        1 MOL      0.044020
    113 H50        -5.7930    3.7930   -0.5330 hc        1 MOL      0.044020
    114 N11        -7.8190    0.3630   -1.0510 n         1 MOL     -0.496894
    115 C36        -8.9290   -0.6580   -1.1230 c3        1 MOL      0.465195
    116 C37        -8.6960   -1.9500   -1.9340 c         1 MOL      0.206340
    117 O19        -8.0490   -1.9210   -2.9610 o         1 MOL     -0.506171
    118 C38       -10.1740    0.0290   -1.7650 c3        1 MOL     -0.339892
    119 C39       -11.4210   -0.8230   -1.6130 ca        1 MOL      0.180773
    120 C40       -11.7420   -1.6970   -2.6650 ca        1 MOL     -0.213407
    121 C41       -12.2950   -0.6550   -0.5000 ca        1 MOL     -0.213407
    122 C42       -12.8320   -2.5520   -2.4330 ca        1 MOL     -0.123426
    123 C43       -13.4390   -1.5000   -0.2870 ca        1 MOL     -0.123426
    124 C44       -13.6910   -2.4540   -1.2850 ca        1 MOL     -0.141191
    125 H51        -7.5070    0.8160   -1.8930 hn        1 MOL      0.274941
    126 H52        -9.2680   -0.9460   -0.1300 h1        1 MOL     -0.039240
    127 H53        -9.9870    0.2510   -2.8150 hc        1 MOL      0.101848
    128 H54       -10.3310    1.0260   -1.3460 hc        1 MOL      0.101848
    129 H55       -11.2020   -1.6420   -3.6030 ha        1 MOL      0.150085
    130 H56       -11.9960   -0.0110    0.3150 ha        1 MOL      0.150085
    131 H57       -12.8640   -3.3370   -3.1740 ha        1 MOL      0.119475
    132 H58       -13.9800   -1.5490    0.6430 ha        1 MOL      0.119475
    133 H59       -14.4910   -3.1750   -1.1480 ha        1 MOL      0.100908
    134 N12        -9.0950   -3.1690   -1.4830 n         1 MOL      0.096290
    135 C45        -9.8460   -3.4330   -0.2950 c3        1 MOL     -0.010806
    136 C46        -9.0210   -3.4070    1.0340 c         1 MOL      0.604676
    137 O20        -9.5900   -3.3070    2.0770 o         1 MOL     -0.600754
    138 C47       -10.4670   -4.7660   -0.4860 c3        1 MOL     -0.137829
    139 C48        -9.5410   -5.5000   -1.4470 c3        1 MOL     -0.087750
    140 C49        -8.9160   -4.4050   -2.3050 c3        1 MOL     -0.151898
    141 H60       -10.5940   -2.6400   -0.1640 h1        1 MOL      0.064076
    142 H61       -10.4860   -5.3070    0.4620 hc        1 MOL      0.038504
    143 H62       -11.4890   -4.6030   -0.8510 hc        1 MOL      0.038504
    144 H63        -8.7430   -6.0150   -0.9210 hc        1 MOL      0.060034
    145 H64       -10.0390   -6.2780   -2.0200 hc        1 MOL      0.060034
    146 H65        -7.8650   -4.6660   -2.4060 h1        1 MOL      0.076668
    147 H66        -9.4090   -4.3010   -3.2760 h1        1 MOL      0.076668
    148 N13        -7.6950   -3.5410    0.9240 n         1 MOL     -0.354122
    149 C50        -6.7810   -3.0770    1.9540 c3        1 MOL      0.094232
    150 C51        -6.8660   -4.0100    3.2180 c         1 MOL      0.427064
    151 O21        -6.5950   -5.2160    3.1380 o         1 MOL     -0.566993
    152 C52        -5.2830   -3.0200    1.4880 c3        1 MOL      0.057812
    153 C53        -5.0060   -2.4060    0.0940 c3        1 MOL     -0.062098
    154 C54        -4.9980   -3.2940   -1.1310 c         1 MOL      0.734901
    155 O22        -5.5620   -4.4260   -1.0870 o         1 MOL     -0.718400
    156 O23        -4.3910   -2.8850   -2.1370 o         1 MOL     -0.718400
    157 H67        -7.3040   -3.6980    0.0100 hn        1 MOL      0.190725
    158 H68        -7.0120   -2.0570    2.2410 h1        1 MOL      0.042252
    159 H69        -4.8080   -4.0100    1.5030 hc        1 MOL     -0.009530
    160 H70        -4.6800   -2.4370    2.1880 hc        1 MOL     -0.009530
    161 H71        -3.9980   -1.9990    0.1250 hc        1 MOL     -0.017982
    162 H72        -5.6730   -1.5790   -0.1290 hc        1 MOL     -0.017982
    163 N14        -7.0770   -3.5640    4.4590 n         1 MOL     -0.298807
    164 C55        -7.0340   -2.1890    5.0030 c3        1 MOL     -0.121834
    165 H73        -7.6620   -2.1310    5.8920 h1        1 MOL      0.067524
    166 H74        -6.0080   -1.9340    5.2670 h1        1 MOL      0.067524
    167 H75        -7.4020   -1.4890    4.2530 h1        1 MOL      0.067524
    168 H76        -7.1880   -4.3130    5.1360 hn        1 MOL      0.243890
    169 Ca1         7.5120    0.4160    0.7840 Ca        1 MOL      1.683304
    170 O24        10.0090    1.6750    0.4810 oh        1 MOL     -0.767670
    171 H77        10.3700    2.3870   -0.0450 ho        1 MOL      0.384622
    172 H78        10.6000    1.6050    1.2320 ho        1 MOL      0.384622
    173 O25         8.4880    1.4050    3.1110 oh        1 MOL     -0.767670
    174 H79         8.7890    2.2810    3.3430 ho        1 MOL      0.384622
    175 H80         8.7430    0.8540    3.8510 ho        1 MOL      0.384622
    176 O26         5.3300    0.7380    2.4060 oh        1 MOL     -0.767670
    177 H81         4.9820    1.2780    3.1160 ho        1 MOL      0.384622
    178 H82         4.5580    0.4500    1.9280 ho        1 MOL      0.384622
@<TRIPOS>BOND
     1    1    2 1   
     2    1    4 1   
     3    1    5 1   
     4    1    6 1   
     5    2    3 2   
     6    2    7 1   
     7    7    8 1   
     8    7   15 1   
     9    8    9 1   
    10    8   11 1   
    11    8   16 1   
    12    9   10 2   
    13    9   19 1   
    14   11   12 1   
    15   11   17 1   
    16   11   18 1   
    17   12   13 1   
    18   12   14 1   
    19   19   20 1   
    20   19   24 1   
    21   20   21 1   
    22   20   23 1   
    23   20   25 1   
    24   21   22 2   
    25   21   29 1   
    26   23   26 1   
    27   23   27 1   
    28   23   28 1   
    29   29   30 1   
    30   29   37 1   
    31   30   31 1   
    32   30   33 1   
    33   30   38 1   
    34   31   32 2   
    35   31   41 1   
    36   33   34 1   
    37   33   39 1   
    38   33   40 1   
    39   34   35 1   
    40   34   36 1   
    41   41   42 1   
    42   41   45 1   
    43   42   43 1   
    44   42   46 1   
    45   42   47 1   
    46   43   44 2   
    47   43   48 1   
    48   48   49 1   
    49   48   56 1   
    50   49   50 1   
    51   49   52 1   
    52   49   57 1   
    53   50   51 2   
    54   50   62 1   
    55   52   53 1   
    56   52   58 1   
    57   52   59 1   
    58   53   54 1   
    59   53   55 2   
    60   54   60 1   
    61   54   61 1   
    62   62   63 1   
    63   62   66 1   
    64   63   64 1   
    65   63   67 1   
    66   63   68 1   
    67   64   65 2   
    68   64   69 1   
    69   69   70 1   
    70   69   76 1   
    71   70   71 1   
    72   70   73 1   
    73   70   77 1   
    74   71   72 2   
    75   71   83 1   
    76   73   74 1   
    77   73   75 1   
    78   73   78 1   
    79   74   80 1   
    80   74   81 1   
    81   74   82 1   
    82   75   79 1   
    83   83   84 1   
    84   83   91 1   
    85   84   85 1   
    86   84   87 1   
    87   84   92 1   
    88   85   86 2   
    89   85  102 1   
    90   87   88 1   
    91   87   89 1   
    92   87   93 1   
    93   88   90 1   
    94   88   94 1   
    95   88   95 1   
    96   89   96 1   
    97   89   97 1   
    98   89   98 1   
    99   90   99 1   
   100   90  100 1   
   101   90  101 1   
   102  102  103 1   
   103  102  110 1   
   104  103  104 1   
   105  103  106 1   
   106  103  111 1   
   107  104  105 2   
   108  104  114 1   
   109  106  107 1   
   110  106  112 1   
   111  106  113 1   
   112  107  108 1   
   113  107  109 1   
   114  114  115 1   
   115  114  125 1   
   116  115  116 1   
   117  115  118 1   
   118  115  126 1   
   119  116  117 2   
   120  116  134 1   
   121  118  119 1   
   122  118  127 1   
   123  118  128 1   
   124  119  120 ar  
   125  119  121 ar  
   126  120  122 ar  
   127  120  129 1   
   128  121  123 ar  
   129  121  130 1   
   130  122  124 ar  
   131  122  131 1   
   132  123  124 ar  
   133  123  132 1   
   134  124  133 1   
   135  134  135 1   
   136  134  140 1   
   137  135  136 1   
   138  135  138 1   
   139  135  141 1   
   140  136  137 2   
   141  136  148 1   
   142  138  139 1   
   143  138  142 1   
   144  138  143 1   
   145  139  140 1   
   146  139  144 1   
   147  139  145 1   
   148  140  146 1   
   149  140  147 1   
   150  148  149 1   
   151  148  157 1   
   152  149  150 1   
   153  149  152 1   
   154  149  158 1   
   155  150  151 2   
   156  150  163 1   
   157  152  153 1   
   158  152  159 1   
   159  152  160 1   
   160  153  154 1   
   161  153  161 1   
   162  153  162 1   
   163  154  155 1   
   164  154  156 1   
   165  163  164 1   
   166  163  168 1   
   167  164  165 1   
   168  164  166 1   
   169  164  167 1   
   170  170  171 1   
   171  170  172 1   
   172  173  174 1   
   173  173  175 1   
   174  176  177 1   
   175  176  178 1   
@<TRIPOS>SUBSTRUCTURE
     1 MOL         1 TEMP              0 ****  ****    0 ROOT
