@<TRIPOS>MOLECULE
MOL
  182   178     1     0     0
SMALL
resp


@<TRIPOS>ATOM
      1 C1          1.3770   -4.3040    6.3210 c3        1 MOL     -0.342149
      2 C2          1.5560   -4.1460    4.8250 c         1 MOL      0.753882
      3 O1          0.6360   -4.4540    4.1070 o         1 MOL     -0.603892
      4 H1          2.1740   -4.9350    6.7160 hc        1 MOL      0.089825
      5 H2          1.4190   -3.3260    6.7980 hc        1 MOL      0.089825
      6 H3          0.4120   -4.7670    6.5260 hc        1 MOL      0.089825
      7 N1          2.6570   -3.7070    4.2480 n         1 MOL     -0.578861
      8 C3          2.6650   -3.1790    2.8880 c3        1 MOL     -0.066559
      9 C4          2.9520   -4.2320    1.8500 c         1 MOL      0.703746
     10 O2          3.9200   -4.9990    2.1810 o         1 MOL     -0.580131
     11 C5          3.7280   -2.0770    3.0050 c3        1 MOL      0.031870
     12 C6          3.7220   -1.2010    1.6710 c         1 MOL      0.473725
     13 O3          4.0240    0.0140    1.7140 o         1 MOL     -0.658532
     14 O4          3.3060   -1.6890    0.5810 o         1 MOL     -0.658532
     15 H4          3.5370   -3.8010    4.7150 hn        1 MOL      0.310360
     16 H5          1.7140   -2.7080    2.6520 h1        1 MOL      0.115270
     17 H6          4.7040   -2.5660    2.9640 hc        1 MOL      0.024232
     18 H7          3.6600   -1.5060    3.9320 hc        1 MOL      0.024232
     19 N2          2.3580   -4.2680    0.6830 n         1 MOL     -0.520401
     20 C7          2.6510   -5.2590   -0.3790 c3        1 MOL     -0.056400
     21 C8          3.9710   -4.9820   -1.1110 c         1 MOL      0.540724
     22 O5          4.5180   -5.9490   -1.5610 o         1 MOL     -0.556394
     23 C9          1.3970   -5.2870   -1.3110 c3        1 MOL      0.239622
     24 C10         1.4820   -6.3670   -2.3510 c3        1 MOL     -0.127086
     25 C11         0.1080   -6.7210   -3.0000 c3        1 MOL      0.220936
     26 C12        -0.5380   -5.3990   -3.3840 c3        1 MOL     -0.049896
     27 N3         -1.8290   -5.7910   -4.0750 n4        1 MOL     -0.338402
     28 H8          1.5850   -3.6560    0.4940 hn        1 MOL      0.205140
     29 H9          2.7470   -6.2140    0.1230 h1        1 MOL      0.122059
     30 H10         1.4130   -4.3440   -1.8370 hc        1 MOL     -0.060137
     31 H11         0.3850   -5.2780   -0.8820 hc        1 MOL     -0.060137
     32 H12         1.8460   -7.2630   -1.8500 hc        1 MOL      0.022440
     33 H13         2.1920   -6.0440   -3.1160 hc        1 MOL      0.022440
     34 H14        -0.5410   -7.2360   -2.2870 hc        1 MOL     -0.021208
     35 H15         0.1820   -7.3410   -3.8910 hc        1 MOL     -0.021208
     36 H16         0.1880   -4.8900   -4.0240 hx        1 MOL      0.086458
     37 H17        -0.8240   -4.9060   -2.4630 hx        1 MOL      0.086458
     38 H18        -2.3890   -4.9550   -4.2160 hn        1 MOL      0.288047
     39 H19        -1.6390   -6.2210   -4.9670 hn        1 MOL      0.288047
     40 H20        -2.3760   -6.4170   -3.5090 hn        1 MOL      0.288047
     41 N4          4.4060   -3.7200   -1.3110 n         1 MOL     -0.329040
     42 C13         5.6730   -3.3280   -2.0170 c3        1 MOL      0.059117
     43 C14         6.6750   -2.6380   -1.1020 c         1 MOL      0.424571
     44 O6          7.7720   -2.4200   -1.5090 o         1 MOL     -0.522672
     45 C15         5.3260   -2.6690   -3.2700 c3        1 MOL     -0.405851
     46 C16         4.4430   -1.4630   -3.2170 c         1 MOL      0.868500
     47 O7          4.3350   -0.8330   -2.1620 o         1 MOL     -0.744350
     48 O8          3.8410   -1.0770   -4.2490 o         1 MOL     -0.744350
     49 H21         3.8440   -2.9660   -0.9400 hn        1 MOL      0.324933
     50 H22         6.0980   -4.2890   -2.3220 h1        1 MOL      0.113387
     51 H23         4.5800   -3.3560   -3.6570 hc        1 MOL      0.113863
     52 H24         6.1820   -2.5040   -3.9250 hc        1 MOL      0.113863
     53 N5          6.2710   -2.2350    0.1010 n         1 MOL     -0.113752
     54 C17         7.0200   -1.4580    1.1130 c3        1 MOL     -0.267009
     55 C18         7.0980    0.0320    0.7590 c         1 MOL      0.444243
     56 O9          7.8380    0.8120    1.4840 o         1 MOL     -0.559831
     57 H25         5.3080   -2.2700    0.3840 hn        1 MOL      0.000920
     58 H26         7.9920   -1.9470    1.1660 h1        1 MOL      0.155263
     59 H27         6.5790   -1.5250    2.1110 h1        1 MOL      0.155263
     60 N6          6.3550    0.5430   -0.2200 n         1 MOL      0.005741
     61 C19         6.6140    1.8030   -0.9760 c3        1 MOL     -0.242551
     62 C20         5.4370    2.7170   -0.9260 c         1 MOL      0.526437
     63 O10         4.3380    2.2500   -0.9980 o         1 MOL     -0.571973
     64 C21         7.1630    1.4420   -2.3390 c3        1 MOL     -0.121170
     65 C22         7.6520    2.6870   -3.1030 c         1 MOL      0.639422
     66 N7          8.9260    2.9360   -3.0140 n         1 MOL     -0.811956
     67 O11         6.8540    3.3390   -3.7950 o         1 MOL     -0.571395
     68 H28         5.7220    0.0150   -0.8110 hn        1 MOL      0.208136
     69 H29         7.4770    2.2830   -0.5230 h1        1 MOL      0.066628
     70 H30         6.3530    1.0020   -2.9200 hc        1 MOL      0.081058
     71 H31         7.8540    0.6020   -2.2970 hc        1 MOL      0.081058
     72 H32         9.4430    2.4810   -2.2760 hn        1 MOL      0.386257
     73 H33         9.3520    3.5680   -3.6690 hn        1 MOL      0.386257
     74 N8          5.6900    4.0150   -0.8480 n         1 MOL     -0.272932
     75 C23         4.6520    5.0380   -0.7570 c3        1 MOL     -0.182238
     76 C24         3.7870    4.9250    0.4850 c         1 MOL      0.619495
     77 O12         4.2770    4.8660    1.5840 o         1 MOL     -0.517367
     78 H34         6.6420    4.3130   -0.7550 hn        1 MOL      0.290946
     79 H35         3.9780    4.9930   -1.6120 h1        1 MOL      0.107587
     80 H36         5.1230    6.0210   -0.8030 h1        1 MOL      0.107587
     81 N9          2.4590    4.9820    0.2800 n         1 MOL     -0.563703
     82 C25         1.4030    4.6130    1.2750 c3        1 MOL      0.344729
     83 C26         1.4510    3.0730    1.5570 c         1 MOL      0.465003
     84 O13         2.1350    2.3200    0.9100 o         1 MOL     -0.405375
     85 C27         0.1000    4.9200    0.5060 c3        1 MOL     -0.457388
     86 C28        -0.0100    6.4570    0.1960 ca        1 MOL      0.147168
     87 C29        -0.1880    6.7750   -1.1300 ca        1 MOL     -0.160695
     88 C30        -0.0890    7.4350    1.1810 ca        1 MOL     -0.160695
     89 C31        -0.0810    8.1270   -1.5400 ca        1 MOL     -0.286186
     90 C32        -0.1170    8.7870    0.7730 ca        1 MOL     -0.286186
     91 C33        -0.0940    9.1550   -0.5540 ca        1 MOL      0.357476
     92 O14         0.0590   10.4160   -0.8990 oh        1 MOL     -0.437402
     93 H37         2.1620    5.2360   -0.6560 hn        1 MOL      0.254594
     94 H38         1.4140    5.2270    2.1750 h1        1 MOL      0.035658
     95 H39        -0.6980    4.6710    1.2150 hc        1 MOL      0.129370
     96 H40         0.0270    4.3100   -0.3990 hc        1 MOL      0.129370
     97 H41        -0.3540    6.0210   -1.8820 ha        1 MOL      0.144581
     98 H42         0.0000    7.2040    2.2340 ha        1 MOL      0.144581
     99 H43        -0.1710    8.3590   -2.5930 ha        1 MOL      0.157376
    100 H44        -0.1370    9.6090    1.4860 ha        1 MOL      0.157376
    101 H45         0.0970   10.4870   -1.8530 ho        1 MOL      0.349947
    102 N10         0.6410    2.7090    2.5290 n         1 MOL     -0.680960
    103 C34         0.3080    1.3100    3.0170 c3        1 MOL      0.070448
    104 C35        -0.0170    0.3220    1.8750 c         1 MOL      0.300192
    105 O15         0.8540   -0.1260    1.1610 o         1 MOL     -0.045712
    106 C36         1.4770    0.8640    4.0200 c3        1 MOL      0.401469
    107 C37         1.0580   -0.5050    4.6500 c3        1 MOL     -0.160667
    108 C38         1.8000    1.8690    5.1360 c3        1 MOL     -0.531331
    109 C39        -0.2080   -0.4660    5.5610 c3        1 MOL     -0.166907
    110 H46         0.1170    3.4780    2.9030 hn        1 MOL      0.343546
    111 H47        -0.5410    1.3560    3.7060 h1        1 MOL      0.046850
    112 H48         2.3520    0.7480    3.3830 hc        1 MOL     -0.003064
    113 H49         1.8540   -0.8230    5.3160 hc        1 MOL      0.058688
    114 H50         1.0110   -1.2560    3.8570 hc        1 MOL      0.058688
    115 H51         2.5740    1.3990    5.7460 hc        1 MOL      0.135606
    116 H52         2.2920    2.6380    4.5480 hc        1 MOL      0.135606
    117 H53         0.9480    2.2110    5.7240 hc        1 MOL      0.135606
    118 H54        -1.0710   -0.0800    5.0120 hc        1 MOL      0.048113
    119 H55        -0.5210   -1.4510    5.9170 hc        1 MOL      0.048113
    120 H56        -0.0490    0.1850    6.4170 hc        1 MOL      0.048113
    121 N11        -1.2380   -0.1840    1.8810 n         1 MOL     -0.367715
    122 C40        -1.7880   -1.1070    0.9400 c3        1 MOL     -0.016774
    123 C41        -3.2870   -1.2040    0.9660 c         1 MOL      0.685330
    124 O16        -3.9130   -1.9180    1.7560 o         1 MOL     -0.543916
    125 C42        -1.3860   -2.5620    1.1260 c3        1 MOL      0.162941
    126 O17        -0.0360   -2.6250    0.8060 oh        1 MOL     -0.362396
    127 H57        -1.8000    0.1200    2.6600 hn        1 MOL      0.297492
    128 H58        -1.5770   -0.7410   -0.0570 h1        1 MOL      0.021888
    129 H59        -1.9720   -3.1910    0.4670 h1        1 MOL      0.055258
    130 H60        -1.5570   -2.8890    2.1530 h1        1 MOL      0.055258
    131 H61         0.2900   -1.7380    0.9840 ho        1 MOL     -0.021216
    132 N12        -3.9110   -0.4140    0.0700 n         1 MOL     -0.838466
    133 C43        -5.3290   -0.4620   -0.1430 c3        1 MOL      0.379100
    134 C44        -5.7200   -0.0710   -1.5860 c         1 MOL      0.558909
    135 O18        -4.8150    0.4440   -2.2690 o         1 MOL     -0.596518
    136 C45        -5.9130    0.4590    0.9800 c3        1 MOL     -0.276706
    137 H62        -3.3970    0.2970   -0.4360 hn        1 MOL      0.370440
    138 H63        -5.7360   -1.4610    0.0010 h1        1 MOL      0.030003
    139 H64        -5.3210    0.5920    1.8860 hc        1 MOL      0.094344
    140 H65        -6.2610    1.3940    0.5480 hc        1 MOL      0.094344
    141 H66        -6.7920   -0.0170    1.4190 hc        1 MOL      0.094344
    142 N13        -6.9080   -0.2090   -2.0920 n         1 MOL     -0.632355
    143 C46        -8.1240   -0.8370   -1.5140 c3        1 MOL      0.447180
    144 C47        -9.4550   -0.2160   -2.1070 c         1 MOL      0.311483
    145 O19        -9.4920    0.3030   -3.2280 o         1 MOL     -0.493762
    146 C48        -8.1780   -2.3520   -1.6140 c3        1 MOL     -0.352228
    147 H67        -6.9680    0.0860   -3.0540 hn        1 MOL      0.340414
    148 H68        -8.0270   -0.6050   -0.4550 h1        1 MOL     -0.086601
    149 H69        -7.3700   -2.8310   -1.0570 hc        1 MOL      0.094756
    150 H70        -9.0740   -2.6850   -1.0860 hc        1 MOL      0.094756
    151 H71        -8.2820   -2.7080   -2.6390 hc        1 MOL      0.094756
    152 N14       -10.6000   -0.3800   -1.4210 n         1 MOL     -0.211127
    153 C49       -10.6780   -0.6260    0.0790 c3        1 MOL     -0.418224
    154 C50       -10.1900    0.4780    0.9820 c         1 MOL      0.714255
    155 O20        -9.7690    0.1250    2.1010 o         1 MOL     -0.569953
    156 C51       -12.1190   -1.1100    0.3590 c3        1 MOL     -0.009095
    157 C52       -13.2550   -0.0540    0.2750 c3        1 MOL     -0.058145
    158 C53       -14.0020   -0.1530   -1.0150 c         1 MOL      0.659799
    159 O21       -15.1010   -0.8170   -1.0140 o         1 MOL     -0.652885
    160 O22       -13.5000    0.4540   -2.0180 o         1 MOL     -0.652885
    161 H72       -11.4310   -0.2090   -1.9600 hn        1 MOL      0.252801
    162 H73       -10.1260   -1.5460    0.2980 h1        1 MOL      0.162342
    163 H74       -11.9420   -1.3620    1.4040 hc        1 MOL      0.053775
    164 H75       -12.3610   -2.0230   -0.1880 hc        1 MOL      0.053775
    165 H76       -12.7520    0.9150    0.2330 hc        1 MOL     -0.004184
    166 H77       -13.8840   -0.1330    1.1600 hc        1 MOL     -0.004184
    167 N15        -9.8960    1.7130    0.5870 n         1 MOL     -0.357673
    168 C54        -9.2200    2.7320    1.4030 c3        1 MOL     -0.233926
    169 H78        -9.9540    3.2440    2.0250 h1        1 MOL      0.110697
    170 H79        -8.4750    2.2530    2.0380 h1        1 MOL      0.110697
    171 H80        -8.7300    3.4540    0.7500 h1        1 MOL      0.110697
    172 H81       -10.3660    2.0530   -0.2360 hn        1 MOL      0.287463
    173 Ca1         2.4970    0.3110   -0.9100 Ca        1 MOL      1.639960
    174 O23         2.4920    0.9570   -3.5400 oh        1 MOL     -0.863610
    175 H82         2.7770    0.1580   -3.9820 ho        1 MOL      0.415188
    176 H83         3.0320    1.6430   -3.9280 ho        1 MOL      0.415188
    177 O24         1.1190   -1.4020   -2.3390 oh        1 MOL     -0.863610
    178 H84         0.1940   -1.2540   -2.4970 ho        1 MOL      0.415188
    179 H85         1.3840   -2.0330   -3.0030 ho        1 MOL      0.415188
    180 O25         0.1470    1.4080   -1.3990 oh        1 MOL     -0.863610
    181 H86        -0.6290    0.8510   -1.3210 ho        1 MOL      0.415188
    182 H87        -0.0020    1.9220   -2.1920 ho        1 MOL      0.415188
@<TRIPOS>BOND
     1    1    2 1   
     2    1    4 1   
     3    1    5 1   
     4    1    6 1   
     5    2    3 2   
     6    2    7 1   
     7    7    8 1   
     8    7   15 1   
     9    8    9 1   
    10    8   11 1   
    11    8   16 1   
    12    9   10 2   
    13    9   19 1   
    14   11   12 1   
    15   11   17 1   
    16   11   18 1   
    17   12   13 1   
    18   12   14 1   
    19   19   20 1   
    20   19   28 1   
    21   20   21 1   
    22   20   23 1   
    23   20   29 1   
    24   21   22 2   
    25   21   41 1   
    26   23   24 1   
    27   23   30 1   
    28   23   31 1   
    29   24   25 1   
    30   24   32 1   
    31   24   33 1   
    32   25   26 1   
    33   25   34 1   
    34   25   35 1   
    35   26   27 1   
    36   26   36 1   
    37   26   37 1   
    38   27   38 1   
    39   27   39 1   
    40   27   40 1   
    41   41   42 1   
    42   41   49 1   
    43   42   43 1   
    44   42   45 1   
    45   42   50 1   
    46   43   44 2   
    47   43   53 1   
    48   45   46 1   
    49   45   51 1   
    50   45   52 1   
    51   46   47 1   
    52   46   48 1   
    53   53   54 1   
    54   53   57 1   
    55   54   55 1   
    56   54   58 1   
    57   54   59 1   
    58   55   56 2   
    59   55   60 1   
    60   60   61 1   
    61   60   68 1   
    62   61   62 1   
    63   61   64 1   
    64   61   69 1   
    65   62   63 2   
    66   62   74 1   
    67   64   65 1   
    68   64   70 1   
    69   64   71 1   
    70   65   66 1   
    71   65   67 2   
    72   66   72 1   
    73   66   73 1   
    74   74   75 1   
    75   74   78 1   
    76   75   76 1   
    77   75   79 1   
    78   75   80 1   
    79   76   77 2   
    80   76   81 1   
    81   81   82 1   
    82   81   93 1   
    83   82   83 1   
    84   82   85 1   
    85   82   94 1   
    86   83   84 2   
    87   83  102 1   
    88   85   86 1   
    89   85   95 1   
    90   85   96 1   
    91   86   87 ar  
    92   86   88 ar  
    93   87   89 ar  
    94   87   97 1   
    95   88   90 ar  
    96   88   98 1   
    97   89   91 ar  
    98   89   99 1   
    99   90   91 ar  
   100   90  100 1   
   101   91   92 1   
   102   92  101 1   
   103  102  103 1   
   104  102  110 1   
   105  103  104 1   
   106  103  106 1   
   107  103  111 1   
   108  104  105 2   
   109  104  121 1   
   110  106  107 1   
   111  106  108 1   
   112  106  112 1   
   113  107  109 1   
   114  107  113 1   
   115  107  114 1   
   116  108  115 1   
   117  108  116 1   
   118  108  117 1   
   119  109  118 1   
   120  109  119 1   
   121  109  120 1   
   122  121  122 1   
   123  121  127 1   
   124  122  123 1   
   125  122  125 1   
   126  122  128 1   
   127  123  124 2   
   128  123  132 1   
   129  125  126 1   
   130  125  129 1   
   131  125  130 1   
   132  126  131 1   
   133  132  133 1   
   134  132  137 1   
   135  133  134 1   
   136  133  136 1   
   137  133  138 1   
   138  134  135 2   
   139  134  142 1   
   140  136  139 1   
   141  136  140 1   
   142  136  141 1   
   143  142  143 1   
   144  142  147 1   
   145  143  144 1   
   146  143  146 1   
   147  143  148 1   
   148  144  145 2   
   149  144  152 1   
   150  146  149 1   
   151  146  150 1   
   152  146  151 1   
   153  152  153 1   
   154  152  161 1   
   155  153  154 1   
   156  153  156 1   
   157  153  162 1   
   158  154  155 2   
   159  154  167 1   
   160  156  157 1   
   161  156  163 1   
   162  156  164 1   
   163  157  158 1   
   164  157  165 1   
   165  157  166 1   
   166  158  159 1   
   167  158  160 1   
   168  167  168 1   
   169  167  172 1   
   170  168  169 1   
   171  168  170 1   
   172  168  171 1   
   173  174  175 1   
   174  174  176 1   
   175  177  178 1   
   176  177  179 1   
   177  180  181 1   
   178  180  182 1   
@<TRIPOS>SUBSTRUCTURE
     1 MOL         1 TEMP              0 ****  ****    0 ROOT
