@<TRIPOS>MOLECULE
MOL
  192   187     1     0     0
SMALL
resp


@<TRIPOS>ATOM
      1 C1          9.8500    0.5920    2.0140 c3        1 MOL     -0.690816
      2 C2          8.5440    0.2770    1.3220 c         1 MOL      0.797036
      3 O1          7.5990   -0.2150    1.9010 o         1 MOL     -0.685066
      4 H1          9.9420   -0.0180    2.9130 hc        1 MOL      0.181209
      5 H2         10.6810    0.3740    1.3420 hc        1 MOL      0.181209
      6 H3          9.8720    1.6480    2.2890 hc        1 MOL      0.181209
      7 N1          8.4890    0.4550    0.0260 n         1 MOL     -0.466908
      8 C3          7.3530    0.3420   -0.8240 c3        1 MOL     -0.013869
      9 C4          7.0690   -1.1380   -1.2090 c         1 MOL      0.483691
     10 O2          7.0250   -1.5570   -2.3950 o         1 MOL     -0.439754
     11 C5          7.4900    1.2140   -2.0580 c3        1 MOL     -0.049342
     12 C6          8.8300    1.0700   -2.7650 c         1 MOL      0.714791
     13 O3          9.8420    1.6270   -2.2920 o         1 MOL     -0.624405
     14 O4          8.8400    0.5200   -3.9050 o         1 MOL     -0.624405
     15 H4          9.3570    0.6840   -0.4370 hn        1 MOL      0.200844
     16 H5          6.4320    0.6070   -0.3080 h1        1 MOL      0.081752
     17 H6          7.3840    2.2840   -1.8700 hc        1 MOL      0.029933
     18 H7          6.6630    1.0090   -2.7250 hc        1 MOL      0.029933
     19 N2          6.8510   -1.9790   -0.2100 n         1 MOL     -0.381135
     20 C7          6.3530   -3.3620   -0.4250 c3        1 MOL     -0.073507
     21 C8          4.9050   -3.6100   -0.8130 c         1 MOL      0.513372
     22 O5          4.5840   -4.5280   -1.5910 o         1 MOL     -0.547626
     23 C9          6.6900   -4.2000    0.7920 c3        1 MOL      0.074408
     24 C10         8.1780   -4.3100    1.0770 c3        1 MOL     -0.001611
     25 C11         8.5150   -5.1740    2.3300 c3        1 MOL     -0.168422
     26 C12         9.9750   -5.0550    2.7700 c3        1 MOL      0.125361
     27 N3         10.2250   -5.9020    3.9580 n4        1 MOL     -0.180839
     28 H8          6.6590   -1.6520    0.7290 hn        1 MOL      0.320584
     29 H9          6.9520   -3.8130   -1.2080 h1        1 MOL      0.106091
     30 H10         6.3320   -5.2260    0.7250 hc        1 MOL     -0.000095
     31 H11         6.0710   -3.8520    1.6190 hc        1 MOL     -0.000095
     32 H12         8.5030   -3.2890    1.2820 hc        1 MOL      0.034305
     33 H13         8.5900   -4.6960    0.1460 hc        1 MOL      0.034305
     34 H14         8.2980   -6.2150    2.0900 hc        1 MOL      0.060128
     35 H15         7.9340   -4.9310    3.2250 hc        1 MOL      0.060128
     36 H16        10.2700   -4.0560    3.1020 hx        1 MOL      0.051329
     37 H17        10.5910   -5.3600    1.9200 hx        1 MOL      0.051329
     38 H18         9.8770   -6.8370    3.7640 hn        1 MOL      0.246231
     39 H19        11.1790   -5.9140    4.2760 hn        1 MOL      0.246231
     40 H20         9.6020   -5.6020    4.6960 hn        1 MOL      0.246231
     41 N4          3.8770   -2.9430   -0.2840 n         1 MOL     -0.454581
     42 C13         3.9020   -1.8500    0.6700 c3        1 MOL      0.204324
     43 C14         3.8850   -0.4680    0.0610 c         1 MOL      0.019308
     44 O6          4.0380   -0.3360   -1.1250 o         1 MOL     -0.250317
     45 C15         2.7120   -2.1780    1.5480 c3        1 MOL     -0.343448
     46 C16         1.2780   -2.1970    1.0040 c         1 MOL      0.684844
     47 O7          1.0250   -1.4110    0.0300 o         1 MOL     -0.635254
     48 O8          0.4350   -3.0010    1.5120 o         1 MOL     -0.635254
     49 H21         3.0300   -3.1090   -0.8150 hn        1 MOL      0.367791
     50 H22         4.7790   -1.9810    1.3080 h1        1 MOL      0.058076
     51 H23         2.6800   -1.6000    2.4680 hc        1 MOL      0.084198
     52 H24         2.9060   -3.1920    1.9140 hc        1 MOL      0.084198
     53 N5          3.7720    0.5390    0.8990 n         1 MOL     -0.187237
     54 C17         3.8830    1.9470    0.3860 c3        1 MOL     -0.133487
     55 C18         2.7580    2.3510   -0.5660 c         1 MOL      0.582842
     56 O9          1.7150    1.7220   -0.6360 o         1 MOL     -0.597620
     57 H25         3.6460    0.3580    1.8860 hn        1 MOL      0.252353
     58 H26         4.8190    2.0350   -0.1550 h1        1 MOL      0.094649
     59 H27         3.9050    2.6490    1.2170 h1        1 MOL      0.094649
     60 N6          2.9210    3.4600   -1.2840 n         1 MOL     -0.541412
     61 C19         1.7910    4.3240   -1.8190 c3        1 MOL      0.363615
     62 C20         2.0230    5.7860   -1.5020 c         1 MOL      0.327414
     63 O10         3.1650    6.2450   -1.2780 o         1 MOL     -0.518066
     64 C21         1.6440    4.0090   -3.3410 c3        1 MOL     -0.226858
     65 C22         1.3530    2.5230   -3.5450 c         1 MOL      0.637638
     66 O11         0.1880    2.0460   -3.3170 o         1 MOL     -0.621658
     67 O12         2.2720    1.8380   -4.0650 o         1 MOL     -0.621658
     68 H28         3.8280    3.8790   -1.3890 hn        1 MOL      0.317261
     69 H29         0.8490    4.0420   -1.3490 h1        1 MOL     -0.013541
     70 H30         2.5780    4.2940   -3.8310 hc        1 MOL      0.067629
     71 H31         0.8120    4.5590   -3.7900 hc        1 MOL      0.067629
     72 N7          0.9820    6.5930   -1.5410 n         1 MOL     -0.350213
     73 C23        -0.4140    6.4010   -1.6220 c3        1 MOL     -0.039415
     74 C24        -1.1380    6.1800   -0.2830 c         1 MOL      0.652824
     75 O13        -0.5980    6.5040    0.7450 o         1 MOL     -0.529647
     76 H32         1.1550    7.5770   -1.3840 hn        1 MOL      0.307326
     77 H33        -0.6900    5.5860   -2.2890 h1        1 MOL      0.037772
     78 H34        -0.7500    7.3350   -2.0820 h1        1 MOL      0.037772
     79 N8         -2.4180    5.7710   -0.2160 n         1 MOL     -0.568036
     80 C25        -3.0690    5.6970    1.1010 c3        1 MOL     -0.050312
     81 C26        -2.6120    4.6650    2.0940 c         1 MOL      0.379160
     82 O14        -3.1320    4.6700    3.2100 o         1 MOL     -0.558756
     83 C27        -4.6140    5.4770    0.9220 c3        1 MOL      0.173894
     84 C28        -4.9610    4.3900   -0.0660 c3        1 MOL     -0.154002
     85 O15        -5.0620    6.6950    0.2840 oh        1 MOL     -0.586491
     86 H35        -2.9400    5.6190   -1.0630 hn        1 MOL      0.346438
     87 H36        -2.9280    6.6590    1.5970 h1        1 MOL      0.137056
     88 H37        -5.1920    5.2600    1.8170 h1        1 MOL      0.082396
     89 H38        -5.1920    7.3410    0.9830 ho        1 MOL      0.372414
     90 H39        -4.4440    4.5040   -1.0220 hc        1 MOL      0.068543
     91 H40        -4.6680    3.4250    0.3550 hc        1 MOL      0.068543
     92 H41        -6.0310    4.2250   -0.1980 hc        1 MOL      0.068543
     93 N9         -1.7100    3.7650    1.6300 n         1 MOL     -0.004537
     94 C29        -1.1540    2.6920    2.5130 c3        1 MOL      0.018023
     95 C30        -1.6010    1.2940    2.0260 c         1 MOL      0.111766
     96 O16        -1.5190    0.9860    0.8380 o         1 MOL     -0.399655
     97 C31         0.4040    2.8340    2.4670 c3        1 MOL      0.280066
     98 C32         1.0070    4.1670    3.0070 c3        1 MOL      0.027100
     99 C33         1.0970    1.6010    3.1130 c3        1 MOL     -0.455382
    100 C34         0.9410    4.4230    4.5040 c3        1 MOL     -0.133254
    101 H42        -1.3940    3.9380    0.6880 hn        1 MOL      0.153228
    102 H43        -1.3730    2.8330    3.5730 h1        1 MOL      0.031589
    103 H44         0.5510    2.8580    1.3870 hc        1 MOL     -0.017887
    104 H45         0.4600    4.8950    2.4070 hc        1 MOL     -0.012662
    105 H46         2.0470    4.1600    2.6640 hc        1 MOL     -0.012662
    106 H47         1.1010    0.7490    2.4330 hc        1 MOL      0.112105
    107 H48         2.1380    1.8810    3.2710 hc        1 MOL      0.112105
    108 H49         0.6590    1.2280    4.0350 hc        1 MOL      0.112105
    109 H50        -0.0360    4.6290    4.9450 hc        1 MOL      0.034353
    110 H51         1.4380    3.6750    5.1180 hc        1 MOL      0.034353
    111 H52         1.4400    5.3710    4.6910 hc        1 MOL      0.034353
    112 N10        -2.0110    0.4250    2.9450 n         1 MOL     -0.228692
    113 C35        -2.3880   -0.9510    2.7310 c3        1 MOL     -0.440193
    114 C36        -3.8880   -1.2480    2.4220 c         1 MOL      0.762756
    115 O17        -4.3420   -2.3800    2.6360 o         1 MOL     -0.606505
    116 C37        -1.8440   -1.9060    3.7730 c3        1 MOL      0.588713
    117 C38        -2.2710   -1.5170    5.2410 c3        1 MOL     -0.409495
    118 O18        -0.4720   -1.9960    3.8690 oh        1 MOL     -0.624978
    119 H53        -2.0240    0.6820    3.9180 hn        1 MOL      0.271593
    120 H54        -1.9370   -1.2360    1.7790 h1        1 MOL      0.298988
    121 H55        -2.1240   -2.9350    3.5300 h1        1 MOL     -0.038936
    122 H56        -0.2160   -2.1540    2.9620 ho        1 MOL      0.343208
    123 H57        -1.8450   -0.5670    5.5550 hc        1 MOL      0.093751
    124 H58        -3.3510   -1.3850    5.3070 hc        1 MOL      0.093751
    125 H59        -1.8930   -2.2640    5.9370 hc        1 MOL      0.093751
    126 N11        -4.6580   -0.1990    1.9850 n         1 MOL     -0.502539
    127 C39        -6.0860   -0.3330    1.7480 c3        1 MOL     -0.127887
    128 C40        -6.4280   -1.1960    0.4900 c         1 MOL      0.507984
    129 O19        -6.2210   -0.7430   -0.6610 o         1 MOL     -0.466848
    130 C41        -6.7840    1.0640    1.5240 c3        1 MOL      0.463350
    131 C42        -8.2340    1.1440    1.2060 c3        1 MOL     -0.423930
    132 O20        -6.5190    1.9140    2.6520 oh        1 MOL     -0.602817
    133 H60        -4.2030    0.6830    1.8040 hn        1 MOL      0.327455
    134 H61        -6.6100   -0.8160    2.5650 h1        1 MOL      0.053056
    135 H62        -6.1980    1.4660    0.6990 h1        1 MOL     -0.006362
    136 H63        -6.9150    1.4410    3.3890 ho        1 MOL      0.373272
    137 H64        -8.5570    2.1250    0.8560 hc        1 MOL      0.108694
    138 H65        -8.4040    0.3190    0.5060 hc        1 MOL      0.108694
    139 H66        -8.7480    0.8820    2.1290 hc        1 MOL      0.108694
    140 N12        -6.9300   -2.4540    0.7520 n         1 MOL     -0.303547
    141 C43        -7.2090   -3.3840   -0.3290 c3        1 MOL      0.109843
    142 C44        -6.0430   -3.4970   -1.3600 c         1 MOL      0.458353
    143 O21        -6.1750   -3.1690   -2.5070 o         1 MOL     -0.480205
    144 C45        -8.5500   -3.0360   -0.9820 c3        1 MOL     -0.334315
    145 C46        -9.7500   -3.0010   -0.0070 c3        1 MOL      0.009057
    146 C47       -11.0880   -2.9720   -0.8510 c3        1 MOL      0.086927
    147 C48       -11.4550   -4.3560   -1.3490 c3        1 MOL     -0.022784
    148 N13       -12.8800   -4.4780   -1.7360 n4        1 MOL     -0.207416
    149 H67        -7.2740   -2.7580    1.6510 hn        1 MOL      0.245010
    150 H68        -7.1650   -4.3570    0.1630 h1        1 MOL      0.042986
    151 H69        -8.7240   -3.7670   -1.7690 hc        1 MOL      0.130066
    152 H70        -8.5390   -2.0710   -1.5010 hc        1 MOL      0.130066
    153 H71        -9.7140   -2.0780    0.5760 hc        1 MOL     -0.006796
    154 H72        -9.8310   -3.8650    0.6650 hc        1 MOL     -0.006796
    155 H73       -11.0020   -2.2600   -1.6670 hc        1 MOL      0.013853
    156 H74       -11.9120   -2.6030   -0.2400 hc        1 MOL      0.013853
    157 H75       -11.3100   -5.0080   -0.4950 hx        1 MOL      0.077950
    158 H76       -10.9240   -4.6660   -2.2580 hx        1 MOL      0.077950
    159 H77       -13.4610   -4.4090   -0.9090 hn        1 MOL      0.222013
    160 H78       -13.1550   -3.8510   -2.4830 hn        1 MOL      0.222013
    161 H79       -12.9930   -5.4490   -1.9980 hn        1 MOL      0.222013
    162 N14        -4.7800   -3.6200   -0.9420 n         1 MOL     -0.500007
    163 C49        -3.5280   -3.1260   -1.5570 c3        1 MOL      0.177852
    164 C50        -2.4170   -2.8760   -0.5460 c         1 MOL      0.359805
    165 O22        -1.8400   -1.7870   -0.6140 o         1 MOL     -0.737228
    166 C51        -3.0780   -4.0680   -2.7030 c3        1 MOL     -0.409169
    167 C52        -1.7400   -3.9060   -3.4030 c3        1 MOL      0.023073
    168 C53        -1.6220   -2.4110   -3.8000 c         1 MOL      0.735936
    169 O23        -0.5800   -1.7330   -3.4990 o         1 MOL     -0.674690
    170 O24        -2.4610   -1.8660   -4.5750 o         1 MOL     -0.674690
    171 H80        -4.7130   -3.9310    0.0200 hn        1 MOL      0.246772
    172 H81        -3.7340   -2.1710   -2.0240 h1        1 MOL      0.172153
    173 H82        -3.8420   -4.1350   -3.4750 hc        1 MOL      0.118817
    174 H83        -2.9320   -5.0650   -2.2880 hc        1 MOL      0.118817
    175 H84        -1.6050   -4.5250   -4.2900 hc        1 MOL      0.013019
    176 H85        -0.9610   -4.1950   -2.6950 hc        1 MOL      0.013019
    177 N15        -1.7780   -3.8280    0.1490 n         1 MOL     -0.076072
    178 C54        -2.0740   -5.2610    0.4210 c3        1 MOL     -0.176445
    179 H86        -2.7820   -5.3350    1.2470 h1        1 MOL      0.071826
    180 H87        -2.5060   -5.7190   -0.4700 h1        1 MOL      0.071826
    181 H88        -1.1530   -5.7800    0.6850 h1        1 MOL      0.071826
    182 H89        -1.0240   -3.4570    0.7140 hn        1 MOL      0.223529
    183 Ca1        -0.2720    0.1660   -1.5250 Ca        1 MOL      1.721350
    184 O25        -1.7420    3.0210   -1.6250 oh        1 MOL     -0.865778
    185 H90        -1.3280    3.0150   -2.4960 ho        1 MOL      0.389117
    186 H91        -2.6390    2.7340   -1.7920 ho        1 MOL      0.389117
    187 O26         2.2170   -0.5210   -2.9140 oh        1 MOL     -0.865778
    188 H92         2.4550    0.2180   -3.4700 ho        1 MOL      0.389117
    189 H93         2.8640   -0.5130   -2.2110 ho        1 MOL      0.389117
    190 O27        -2.7310    0.2940   -2.7580 oh        1 MOL     -0.865778
    191 H94        -2.8940   -0.4170   -3.3890 ho        1 MOL      0.389117
    192 H95        -3.5220    0.8330   -2.7980 ho        1 MOL      0.389117
@<TRIPOS>BOND
     1    1    2 1   
     2    1    4 1   
     3    1    5 1   
     4    1    6 1   
     5    2    3 2   
     6    2    7 1   
     7    7    8 1   
     8    7   15 1   
     9    8    9 1   
    10    8   11 1   
    11    8   16 1   
    12    9   10 2   
    13    9   19 1   
    14   11   12 1   
    15   11   17 1   
    16   11   18 1   
    17   12   13 1   
    18   12   14 1   
    19   19   20 1   
    20   19   28 1   
    21   20   21 1   
    22   20   23 1   
    23   20   29 1   
    24   21   22 2   
    25   21   41 1   
    26   23   24 1   
    27   23   30 1   
    28   23   31 1   
    29   24   25 1   
    30   24   32 1   
    31   24   33 1   
    32   25   26 1   
    33   25   34 1   
    34   25   35 1   
    35   26   27 1   
    36   26   36 1   
    37   26   37 1   
    38   27   38 1   
    39   27   39 1   
    40   27   40 1   
    41   41   42 1   
    42   41   49 1   
    43   42   43 1   
    44   42   45 1   
    45   42   50 1   
    46   43   44 2   
    47   43   53 1   
    48   45   46 1   
    49   45   51 1   
    50   45   52 1   
    51   46   47 1   
    52   46   48 1   
    53   53   54 1   
    54   53   57 1   
    55   54   55 1   
    56   54   58 1   
    57   54   59 1   
    58   55   56 2   
    59   55   60 1   
    60   60   61 1   
    61   60   68 1   
    62   61   62 1   
    63   61   64 1   
    64   61   69 1   
    65   62   63 2   
    66   62   72 1   
    67   64   65 1   
    68   64   70 1   
    69   64   71 1   
    70   65   66 1   
    71   65   67 1   
    72   72   73 1   
    73   72   76 1   
    74   73   74 1   
    75   73   77 1   
    76   73   78 1   
    77   74   75 2   
    78   74   79 1   
    79   79   80 1   
    80   79   86 1   
    81   80   81 1   
    82   80   83 1   
    83   80   87 1   
    84   81   82 2   
    85   81   93 1   
    86   83   84 1   
    87   83   85 1   
    88   83   88 1   
    89   84   90 1   
    90   84   91 1   
    91   84   92 1   
    92   85   89 1   
    93   93   94 1   
    94   93  101 1   
    95   94   95 1   
    96   94   97 1   
    97   94  102 1   
    98   95   96 2   
    99   95  112 1   
   100   97   98 1   
   101   97   99 1   
   102   97  103 1   
   103   98  100 1   
   104   98  104 1   
   105   98  105 1   
   106   99  106 1   
   107   99  107 1   
   108   99  108 1   
   109  100  109 1   
   110  100  110 1   
   111  100  111 1   
   112  112  113 1   
   113  112  119 1   
   114  113  114 1   
   115  113  116 1   
   116  113  120 1   
   117  114  115 2   
   118  114  126 1   
   119  116  117 1   
   120  116  118 1   
   121  116  121 1   
   122  117  123 1   
   123  117  124 1   
   124  117  125 1   
   125  118  122 1   
   126  126  127 1   
   127  126  133 1   
   128  127  128 1   
   129  127  130 1   
   130  127  134 1   
   131  128  129 2   
   132  128  140 1   
   133  130  131 1   
   134  130  132 1   
   135  130  135 1   
   136  131  137 1   
   137  131  138 1   
   138  131  139 1   
   139  132  136 1   
   140  140  141 1   
   141  140  149 1   
   142  141  142 1   
   143  141  144 1   
   144  141  150 1   
   145  142  143 2   
   146  142  162 1   
   147  144  145 1   
   148  144  151 1   
   149  144  152 1   
   150  145  146 1   
   151  145  153 1   
   152  145  154 1   
   153  146  147 1   
   154  146  155 1   
   155  146  156 1   
   156  147  148 1   
   157  147  157 1   
   158  147  158 1   
   159  148  159 1   
   160  148  160 1   
   161  148  161 1   
   162  162  163 1   
   163  162  171 1   
   164  163  164 1   
   165  163  166 1   
   166  163  172 1   
   167  164  165 2   
   168  164  177 1   
   169  166  167 1   
   170  166  173 1   
   171  166  174 1   
   172  167  168 1   
   173  167  175 1   
   174  167  176 1   
   175  168  169 1   
   176  168  170 1   
   177  177  178 1   
   178  177  182 1   
   179  178  179 1   
   180  178  180 1   
   181  178  181 1   
   182  184  185 1   
   183  184  186 1   
   184  187  188 1   
   185  187  189 1   
   186  190  191 1   
   187  190  192 1   
@<TRIPOS>SUBSTRUCTURE
     1 MOL         1 TEMP              0 ****  ****    0 ROOT
