@<TRIPOS>MOLECULE
MOL
  185   180     1     0     0
SMALL
resp


@<TRIPOS>ATOM
      1 C1         -6.2790    1.2710   -3.9050 c3        1 MOL     -0.451465
      2 C2         -6.7990    1.1220   -2.4690 c         1 MOL      0.655366
      3 O1         -5.9990    0.8380   -1.5610 o         1 MOL     -0.499318
      4 H1         -6.4450    0.3410   -4.4500 hc        1 MOL      0.123464
      5 H2         -6.8110    2.0820   -4.4020 hc        1 MOL      0.123464
      6 H3         -5.2120    1.4930   -3.8840 hc        1 MOL      0.123464
      7 N1         -8.0880    1.4820   -2.2570 n         1 MOL     -0.665678
      8 C3         -8.7730    1.5770   -0.9640 c3        1 MOL      0.333071
      9 C4         -8.5340    0.3530   -0.0120 c         1 MOL      0.272971
     10 O2         -8.7960    0.4020    1.1810 o         1 MOL     -0.486309
     11 C5         -8.5380    2.8930   -0.2050 c3        1 MOL     -0.170971
     12 C6         -8.7630    4.1020   -1.1160 c         1 MOL      0.699099
     13 O3         -8.1930    5.1910   -0.7550 o         1 MOL     -0.684260
     14 O4         -9.5210    3.9850   -2.1110 o         1 MOL     -0.684260
     15 H4         -8.4340    1.9980   -3.0500 hn        1 MOL      0.335693
     16 H5         -9.8410    1.4950   -1.2020 h1        1 MOL      0.004503
     17 H6         -7.5170    2.8790    0.1790 hc        1 MOL      0.052594
     18 H7         -9.1940    2.9160    0.6700 hc        1 MOL      0.052594
     19 N2         -8.0850   -0.8070   -0.4920 n         1 MOL     -0.312366
     20 C7         -7.8310   -1.9820    0.3260 c3        1 MOL      0.103763
     21 C8         -6.4000   -2.2630    0.6810 c         1 MOL      0.510622
     22 O5         -6.1880   -3.1750    1.4780 o         1 MOL     -0.546366
     23 C9         -8.5600   -3.2580   -0.3000 c3        1 MOL     -0.229208
     24 C10       -10.0870   -2.9570   -0.3010 c3        1 MOL      0.188491
     25 C11       -10.8860   -4.2510   -0.4270 c3        1 MOL     -0.035135
     26 C12       -12.4080   -3.9260   -0.2280 c3        1 MOL      0.056377
     27 N3        -13.2420   -5.0690   -0.4690 n4        1 MOL     -0.346247
     28 H8         -7.9870   -0.8550   -1.5010 hn        1 MOL      0.207578
     29 H9         -8.2200   -1.8060    1.3250 h1        1 MOL      0.108575
     30 H10        -8.2920   -4.1070    0.3370 hc        1 MOL      0.059758
     31 H11        -8.1630   -3.3430   -1.3100 hc        1 MOL      0.059758
     32 H12       -10.3800   -2.3220   -1.1260 hc        1 MOL     -0.020848
     33 H13       -10.4120   -2.4910    0.6350 hc        1 MOL     -0.020848
     34 H14       -10.6130   -4.9770    0.3290 hc        1 MOL      0.018480
     35 H15       -10.6330   -4.6140   -1.4310 hc        1 MOL      0.018480
     36 H16       -12.7000   -3.1240   -0.9120 hx        1 MOL      0.076245
     37 H17       -12.4040   -3.4850    0.7770 hx        1 MOL      0.076245
     38 H18       -12.8210   -5.9150   -0.1230 hn        1 MOL      0.315372
     39 H19       -14.1470   -4.8840   -0.0510 hn        1 MOL      0.315372
     40 H20       -13.2720   -5.1590   -1.4760 hn        1 MOL      0.315372
     41 N4         -5.4610   -1.4870    0.0880 n         1 MOL     -0.302202
     42 C13        -3.9930   -1.7490    0.1880 c3        1 MOL     -0.224689
     43 C14        -3.4470   -2.1200    1.6130 c         1 MOL      0.482187
     44 O6         -3.5880   -1.3790    2.6010 o         1 MOL     -0.427510
     45 C15        -3.2300   -0.6010   -0.4150 c3        1 MOL      0.084817
     46 C16        -1.7710   -1.0200   -0.5270 c         1 MOL      0.473302
     47 O7         -0.9790   -0.7110    0.3480 o         1 MOL     -0.701685
     48 O8         -1.4780   -1.7650   -1.5050 o         1 MOL     -0.701685
     49 H21        -5.8060   -1.0070   -0.7340 hn        1 MOL      0.243760
     50 H22        -3.7310   -2.5790   -0.4690 h1        1 MOL      0.100002
     51 H23        -3.3760    0.2480    0.2480 hc        1 MOL      0.053536
     52 H24        -3.7440   -0.4260   -1.3520 hc        1 MOL      0.053536
     53 N5         -2.6910   -3.2840    1.6890 n         1 MOL     -0.245976
     54 C17        -2.3160   -3.9330    2.9820 c3        1 MOL     -0.201253
     55 C18        -1.2480   -3.2430    3.9040 c         1 MOL      0.528026
     56 O9         -1.0360   -3.7600    4.9960 o         1 MOL     -0.547212
     57 H25        -2.5830   -3.7930    0.8250 hn        1 MOL      0.213823
     58 H26        -2.0760   -4.9810    2.8010 h1        1 MOL      0.119200
     59 H27        -3.2540   -3.8850    3.5380 h1        1 MOL      0.119200
     60 N6         -0.5830   -2.1770    3.4270 n         1 MOL     -0.291456
     61 C19         0.1950   -1.1610    4.1750 c3        1 MOL      0.280389
     62 C20        -0.2950    0.2990    3.8920 c         1 MOL      0.342875
     63 O10         0.4750    1.2330    4.1990 o         1 MOL     -0.519116
     64 C21         1.6880   -1.5260    4.0110 c3        1 MOL     -0.576731
     65 C22         2.2490   -0.9550    2.7250 c         1 MOL      0.807531
     66 N7          3.1280   -0.0140    2.8050 n         1 MOL     -0.715213
     67 O11         1.8090   -1.2850    1.6520 o         1 MOL     -0.721875
     68 H28        -0.7710   -1.9760    2.4520 hn        1 MOL      0.249707
     69 H29        -0.0970   -1.3110    5.2200 h1        1 MOL      0.046880
     70 H30         1.7660   -2.5950    3.8280 hc        1 MOL      0.169469
     71 H31         2.2680   -1.2060    4.8680 hc        1 MOL      0.169469
     72 H32         3.4880    0.3200    3.6880 hn        1 MOL      0.341656
     73 H33         3.4950    0.3480    1.9340 hn        1 MOL      0.341656
     74 N8         -1.5140    0.4170    3.3440 n         1 MOL     -0.087628
     75 C23        -2.1200    1.7030    3.2680 c3        1 MOL     -0.104926
     76 C24        -1.5730    2.6350    2.1910 c         1 MOL      0.467011
     77 O12        -1.6410    3.8520    2.2810 o         1 MOL     -0.533934
     78 H34        -2.0850   -0.4110    3.4170 hn        1 MOL      0.098857
     79 H35        -2.0520    2.3470    4.1480 h1        1 MOL      0.089266
     80 H36        -3.1830    1.6250    3.0670 h1        1 MOL      0.089266
     81 N9         -0.9490    2.0600    1.1330 n         1 MOL     -0.185735
     82 C25        -0.1910    2.7440    0.0480 c3        1 MOL      0.229767
     83 C26         1.2020    2.1790   -0.1600 c         1 MOL      0.215713
     84 O13         1.3060    0.9570   -0.1560 o         1 MOL     -0.195234
     85 C27        -0.9160    2.7390   -1.3060 c3        1 MOL      0.120522
     86 C28        -2.1440    3.6200   -1.3270 ca        1 MOL     -0.202013
     87 C29        -1.8720    4.9950   -1.4930 ca        1 MOL     -0.088931
     88 C30        -3.4400    3.2360   -0.9390 ca        1 MOL     -0.088931
     89 C31        -2.8780    5.8990   -1.3740 ca        1 MOL     -0.197583
     90 C32        -4.4980    4.1930   -0.9110 ca        1 MOL     -0.197583
     91 C33        -4.2130    5.5180   -1.1300 ca        1 MOL      0.354540
     92 O14        -5.2550    6.4150   -1.2230 oh        1 MOL     -0.537900
     93 H37        -0.7720    1.0810    1.2810 hn        1 MOL      0.080046
     94 H38        -0.1460    3.7820    0.3930 h1        1 MOL      0.014798
     95 H39        -1.1930    1.7260   -1.5870 hc        1 MOL     -0.024377
     96 H40        -0.1830    2.9830   -2.0760 hc        1 MOL     -0.024377
     97 H41        -0.8870    5.4040   -1.6680 ha        1 MOL      0.089579
     98 H42        -3.6170    2.1900   -0.7190 ha        1 MOL      0.089579
     99 H43        -2.7340    6.9420   -1.5950 ha        1 MOL      0.115213
    100 H44        -5.4700    3.7390   -0.8170 ha        1 MOL      0.115213
    101 H45        -6.1050    6.0090   -1.0370 ho        1 MOL      0.396309
    102 N10         2.1960    3.0500   -0.3720 n         1 MOL     -0.585342
    103 C34         3.5310    2.6690   -0.9120 c3        1 MOL      0.258667
    104 C35         4.4130    2.2230    0.2400 c         1 MOL      0.349770
    105 O15         4.7690    1.0840    0.3390 o         1 MOL     -0.382310
    106 C36         4.2520    3.6400   -1.8190 c3        1 MOL      0.275008
    107 C37         3.3710    4.3430   -2.8690 c3        1 MOL      0.052880
    108 C38         5.4490    2.9920   -2.5310 c3        1 MOL     -0.484326
    109 C39         2.7090    3.4530   -3.9720 c3        1 MOL     -0.117766
    110 H46         1.9640    4.0310   -0.3840 hn        1 MOL      0.324234
    111 H47         3.4340    1.7660   -1.5210 h1        1 MOL     -0.059135
    112 H48         4.5850    4.4390   -1.1530 hc        1 MOL     -0.111550
    113 H49         4.0010    5.0560   -3.3960 hc        1 MOL     -0.016403
    114 H50         2.5780    4.9050   -2.3800 hc        1 MOL     -0.016403
    115 H51         5.7950    3.7740   -3.2170 hc        1 MOL      0.133002
    116 H52         6.2430    2.7670   -1.8200 hc        1 MOL      0.133002
    117 H53         5.1290    2.1240   -3.1010 hc        1 MOL      0.133002
    118 H54         3.3880    3.0100   -4.7070 hc        1 MOL      0.035946
    119 H55         2.1430    2.6590   -3.4810 hc        1 MOL      0.035946
    120 H56         2.0340    4.1030   -4.5230 hc        1 MOL      0.035946
    121 N11         4.7700    3.1730    1.1160 n         1 MOL     -0.105691
    122 C40         5.4840    2.8230    2.3340 c3        1 MOL     -0.305602
    123 C41         6.9590    2.4730    2.1640 c         1 MOL      0.573100
    124 O16         7.5750    1.7830    2.9720 o         1 MOL     -0.492075
    125 C42         5.1950    3.9330    3.3770 c3        1 MOL      0.215747
    126 O17         5.4620    5.2250    2.9210 oh        1 MOL     -0.576026
    127 H57         4.4640    4.1290    0.9960 hn        1 MOL      0.208402
    128 H58         5.0750    1.9080    2.7690 h1        1 MOL      0.104425
    129 H59         5.8000    3.7550    4.2590 h1        1 MOL      0.059710
    130 H60         4.1290    3.8590    3.5960 h1        1 MOL      0.059710
    131 H61         6.3770    5.3110    2.6510 ho        1 MOL      0.386668
    132 N12         7.5880    2.8630    1.0390 n         1 MOL     -0.472316
    133 C43         8.7460    2.2070    0.4750 c3        1 MOL      0.387862
    134 C44         8.7490    0.6520    0.6490 c         1 MOL      0.264439
    135 O18         9.8150    0.0320    0.9410 o         1 MOL     -0.509027
    136 C45         9.9380    2.9950    0.7640 c3        1 MOL     -0.395004
    137 H62         7.1580    3.6050    0.5120 hn        1 MOL      0.234904
    138 H63         8.4970    2.3130   -0.5840 h1        1 MOL     -0.017492
    139 H64        10.2500    2.9050    1.8070 hc        1 MOL      0.104662
    140 H65        10.7580    2.6670    0.1270 hc        1 MOL      0.104662
    141 H66         9.8130    4.0570    0.5680 hc        1 MOL      0.104662
    142 N13         7.5760    0.0430    0.5770 n         1 MOL     -0.001086
    143 C46         7.4320   -1.4660    0.6180 c3        1 MOL      0.131294
    144 C47         7.1240   -2.0930   -0.7700 c         1 MOL      0.425504
    145 O19         6.5540   -1.3830   -1.5800 o         1 MOL     -0.479125
    146 C48         6.4190   -1.8420    1.7800 c3        1 MOL     -0.016306
    147 H67         6.7350    0.5150    0.2750 hn        1 MOL     -0.057899
    148 H68         8.3580   -1.9000    0.9880 h1        1 MOL      0.024715
    149 H69         5.4200   -1.5740    1.4480 hc        1 MOL      0.006145
    150 H70         6.5390   -2.9180    1.9070 hc        1 MOL      0.006145
    151 H71         6.6080   -1.3020    2.7150 hc        1 MOL      0.006145
    152 N14         7.5060   -3.3760   -0.9370 n         1 MOL     -0.643085
    153 C49         7.2820   -4.2280   -2.0930 c3        1 MOL     -0.025323
    154 C50         7.9210   -3.7460   -3.4160 c         1 MOL      0.457140
    155 O20         7.5470   -4.2110   -4.4920 o         1 MOL     -0.494077
    156 C51         5.7020   -4.3520   -2.1360 c3        1 MOL     -0.050801
    157 C52         5.0070   -4.7240   -0.7780 c3        1 MOL      0.029232
    158 C53         3.4670   -4.9570   -1.0000 c         1 MOL      0.576412
    159 O21         2.9920   -6.0830   -0.8980 o         1 MOL     -0.674934
    160 O22         2.7390   -3.9320   -1.0450 o         1 MOL     -0.674934
    161 H72         7.9470   -3.8320   -0.1580 hn        1 MOL      0.381618
    162 H73         7.7100   -5.1940   -1.7990 h1        1 MOL      0.113062
    163 H74         5.5060   -5.1320   -2.8740 hc        1 MOL      0.046251
    164 H75         5.2390   -3.4700   -2.5850 hc        1 MOL      0.046251
    165 H76         5.1560   -4.0030    0.0330 hc        1 MOL      0.004768
    166 H77         5.3610   -5.6810   -0.4120 hc        1 MOL      0.004768
    167 N15         8.8190   -2.7460   -3.4610 n         1 MOL     -0.297065
    168 C54         9.3200   -2.0540   -4.6450 c3        1 MOL     -0.071556
    169 H78         9.2210   -2.7050   -5.5130 h1        1 MOL      0.069783
    170 H79         8.7430   -1.1440   -4.8060 h1        1 MOL      0.069783
    171 H80        10.3690   -1.8000   -4.5000 h1        1 MOL      0.069783
    172 H81         9.1570   -2.3290   -2.5970 hn        1 MOL      0.255524
    173 Ca1         1.1390   -1.8320   -0.8820 Ca        1 MOL      1.734535
    174 O23         3.8120   -1.1510   -1.0620 oh        1 MOL     -0.880676
    175 H82         4.2660   -0.4870   -0.5350 ho        1 MOL      0.428215
    176 H83         4.5160   -1.5730   -1.5610 ho        1 MOL      0.428215
    177 O24         0.8950    0.0240   -3.0570 oh        1 MOL     -0.880676
    178 H84         0.4760    0.8800   -3.1350 ho        1 MOL      0.428215
    179 H85         0.7970   -0.3660   -3.9240 ho        1 MOL      0.428215
    180 O25         0.2320   -4.1550    0.4780 oh        1 MOL     -0.880676
    181 H86        -0.5410   -4.6650    0.2120 ho        1 MOL      0.428215
    182 H87         0.9670   -4.7460    0.3640 ho        1 MOL      0.428215
    183 O26         0.9230   -3.2450   -3.3050 oh        1 MOL     -0.880676
    184 H88         1.0770   -4.1620   -3.0800 ho        1 MOL      0.428215
    185 H89         0.8690   -3.2420   -4.2650 ho        1 MOL      0.428215
@<TRIPOS>BOND
     1    1    2 1   
     2    1    4 1   
     3    1    5 1   
     4    1    6 1   
     5    2    3 2   
     6    2    7 1   
     7    7    8 1   
     8    7   15 1   
     9    8    9 1   
    10    8   11 1   
    11    8   16 1   
    12    9   10 2   
    13    9   19 1   
    14   11   12 1   
    15   11   17 1   
    16   11   18 1   
    17   12   13 1   
    18   12   14 1   
    19   19   20 1   
    20   19   28 1   
    21   20   21 1   
    22   20   23 1   
    23   20   29 1   
    24   21   22 2   
    25   21   41 1   
    26   23   24 1   
    27   23   30 1   
    28   23   31 1   
    29   24   25 1   
    30   24   32 1   
    31   24   33 1   
    32   25   26 1   
    33   25   34 1   
    34   25   35 1   
    35   26   27 1   
    36   26   36 1   
    37   26   37 1   
    38   27   38 1   
    39   27   39 1   
    40   27   40 1   
    41   41   42 1   
    42   41   49 1   
    43   42   43 1   
    44   42   45 1   
    45   42   50 1   
    46   43   44 2   
    47   43   53 1   
    48   45   46 1   
    49   45   51 1   
    50   45   52 1   
    51   46   47 1   
    52   46   48 1   
    53   53   54 1   
    54   53   57 1   
    55   54   55 1   
    56   54   58 1   
    57   54   59 1   
    58   55   56 2   
    59   55   60 1   
    60   60   61 1   
    61   60   68 1   
    62   61   62 1   
    63   61   64 1   
    64   61   69 1   
    65   62   63 2   
    66   62   74 1   
    67   64   65 1   
    68   64   70 1   
    69   64   71 1   
    70   65   66 1   
    71   65   67 2   
    72   66   72 1   
    73   66   73 1   
    74   74   75 1   
    75   74   78 1   
    76   75   76 1   
    77   75   79 1   
    78   75   80 1   
    79   76   77 2   
    80   76   81 1   
    81   81   82 1   
    82   81   93 1   
    83   82   83 1   
    84   82   85 1   
    85   82   94 1   
    86   83   84 2   
    87   83  102 1   
    88   85   86 1   
    89   85   95 1   
    90   85   96 1   
    91   86   87 ar  
    92   86   88 ar  
    93   87   89 ar  
    94   87   97 1   
    95   88   90 ar  
    96   88   98 1   
    97   89   91 ar  
    98   89   99 1   
    99   90   91 ar  
   100   90  100 1   
   101   91   92 1   
   102   92  101 1   
   103  102  103 1   
   104  102  110 1   
   105  103  104 1   
   106  103  106 1   
   107  103  111 1   
   108  104  105 2   
   109  104  121 1   
   110  106  107 1   
   111  106  108 1   
   112  106  112 1   
   113  107  109 1   
   114  107  113 1   
   115  107  114 1   
   116  108  115 1   
   117  108  116 1   
   118  108  117 1   
   119  109  118 1   
   120  109  119 1   
   121  109  120 1   
   122  121  122 1   
   123  121  127 1   
   124  122  123 1   
   125  122  125 1   
   126  122  128 1   
   127  123  124 2   
   128  123  132 1   
   129  125  126 1   
   130  125  129 1   
   131  125  130 1   
   132  126  131 1   
   133  132  133 1   
   134  132  137 1   
   135  133  134 1   
   136  133  136 1   
   137  133  138 1   
   138  134  135 2   
   139  134  142 1   
   140  136  139 1   
   141  136  140 1   
   142  136  141 1   
   143  142  143 1   
   144  142  147 1   
   145  143  144 1   
   146  143  146 1   
   147  143  148 1   
   148  144  145 2   
   149  144  152 1   
   150  146  149 1   
   151  146  150 1   
   152  146  151 1   
   153  152  153 1   
   154  152  161 1   
   155  153  154 1   
   156  153  156 1   
   157  153  162 1   
   158  154  155 2   
   159  154  167 1   
   160  156  157 1   
   161  156  163 1   
   162  156  164 1   
   163  157  158 1   
   164  157  165 1   
   165  157  166 1   
   166  158  159 1   
   167  158  160 1   
   168  167  168 1   
   169  167  172 1   
   170  168  169 1   
   171  168  170 1   
   172  168  171 1   
   173  174  175 1   
   174  174  176 1   
   175  177  178 1   
   176  177  179 1   
   177  180  181 1   
   178  180  182 1   
   179  183  184 1   
   180  183  185 1   
@<TRIPOS>SUBSTRUCTURE
     1 MOL         1 TEMP              0 ****  ****    0 ROOT
