@<TRIPOS>MOLECULE
MOL
  178   175     1     0     0
SMALL
resp


@<TRIPOS>ATOM
      1 C1          4.6310   -2.6400    3.4990 c3        1 MOL     -0.378318
      2 C2          5.9430   -2.0030    2.9320 c         1 MOL      0.694138
      3 O1          5.9830   -0.7620    2.6440 o         1 MOL     -0.589959
      4 H1          3.8710   -1.8670    3.6100 hc        1 MOL      0.094799
      5 H2          4.2710   -3.4060    2.8110 hc        1 MOL      0.094799
      6 H3          4.8350   -3.0900    4.4700 hc        1 MOL      0.094799
      7 N1          6.9660   -2.8160    3.0210 n         1 MOL     -0.563630
      8 C3          8.3630   -2.3580    2.7200 c3        1 MOL      0.230536
      9 C4          8.4900   -2.2370    1.1820 c         1 MOL      0.552199
     10 O2          8.1940   -3.1350    0.4270 o         1 MOL     -0.568894
     11 C5          9.3110   -3.3390    3.3560 c3        1 MOL     -0.336710
     12 C6         10.7440   -2.8890    3.3470 c         1 MOL      0.779352
     13 O3         11.0660   -1.7070    3.6320 o         1 MOL     -0.744165
     14 O4         11.6240   -3.7050    3.0760 o         1 MOL     -0.744165
     15 H4          6.7700   -3.7480    3.3530 hn        1 MOL      0.306296
     16 H5          8.4730   -1.3350    3.1030 h1        1 MOL     -0.002133
     17 H6          9.1830   -4.2290    2.7390 hc        1 MOL      0.063960
     18 H7          8.9490   -3.4960    4.3730 hc        1 MOL      0.063960
     19 N2          8.8640   -1.0690    0.6930 n         1 MOL     -0.420697
     20 C7          9.2340   -0.8330   -0.7080 c3        1 MOL      0.206230
     21 C8          8.0370   -0.6280   -1.6730 c         1 MOL      0.268412
     22 O5          8.1680   -0.4610   -2.8890 o         1 MOL     -0.512931
     23 C9         10.2520    0.2870   -0.7660 c3        1 MOL     -0.299336
     24 H8          9.1300   -0.3530    1.3590 hn        1 MOL      0.245383
     25 H9          9.7190   -1.7390   -1.0850 h1        1 MOL      0.100184
     26 H10        10.6440    0.3020   -1.7790 hc        1 MOL      0.079619
     27 H11         9.8400    1.2760   -0.5740 hc        1 MOL      0.079619
     28 H12        11.1030    0.0040   -0.1560 hc        1 MOL      0.079619
     29 N3          6.8110   -0.6770   -1.1380 n         1 MOL     -0.132748
     30 C10         5.5240   -0.5940   -1.7700 c3        1 MOL     -0.014771
     31 C11         5.2920    0.5540   -2.8300 c         1 MOL      0.513546
     32 O6          4.5350    0.2760   -3.7580 o         1 MOL     -0.474130
     33 C12         5.2340   -2.0240   -2.2750 c3        1 MOL     -0.041787
     34 C13         3.7280   -2.4250   -2.2150 c         1 MOL      0.708164
     35 O7          2.9350   -1.9470   -1.3930 o         1 MOL     -0.776330
     36 O8          3.4160   -3.4610   -2.8520 o         1 MOL     -0.776330
     37 H13         6.8560   -0.6200   -0.1300 hn        1 MOL      0.120144
     38 H14         4.8480   -0.4130   -0.9280 h1        1 MOL      0.059550
     39 H15         5.8170   -2.8630   -1.8700 hc        1 MOL      0.035828
     40 H16         5.5610   -1.9680   -3.3130 hc        1 MOL      0.035828
     41 N4          5.7470    1.7780   -2.5690 n         1 MOL     -0.328554
     42 C14         5.7480    2.8840   -3.5540 c3        1 MOL     -0.221549
     43 C15         4.4820    3.6280   -3.8630 c         1 MOL      0.514132
     44 O9          4.3170    4.2400   -4.9130 o         1 MOL     -0.551286
     45 H17         6.1410    2.0990   -1.6990 hn        1 MOL      0.256857
     46 H18         6.1580    2.4050   -4.4510 h1        1 MOL      0.127426
     47 H19         6.4690    3.6420   -3.2500 h1        1 MOL      0.127426
     48 N5          3.5620    3.6890   -2.9190 n         1 MOL     -0.324960
     49 C16         2.2610    4.3590   -2.9940 c3        1 MOL      0.073972
     50 C17         1.9170    5.1260   -1.7130 c         1 MOL      0.421206
     51 O10         1.7320    4.5630   -0.6520 o         1 MOL     -0.450686
     52 C18         1.1270    3.2810   -3.2670 c3        1 MOL     -0.237391
     53 C19        -0.1890    3.9590   -3.3850 c         1 MOL      0.613859
     54 N6         -1.0580    3.7290   -2.4070 n         1 MOL     -0.740961
     55 O11        -0.5190    4.7690   -4.2790 o         1 MOL     -0.597630
     56 H20         3.7740    3.2010   -2.0640 hn        1 MOL      0.217232
     57 H21         2.2220    5.1630   -3.7340 h1        1 MOL      0.054370
     58 H22         1.0250    2.6240   -2.3950 hc        1 MOL      0.129160
     59 H23         1.2880    2.7700   -4.2150 hc        1 MOL      0.129160
     60 H24        -0.7800    3.2010   -1.5810 hn        1 MOL      0.357189
     61 H25        -1.9420    4.2110   -2.3490 hn        1 MOL      0.357189
     62 N7          1.5590    6.4180   -1.8370 n         1 MOL     -0.375699
     63 C20         1.0830    7.3460   -0.8220 c3        1 MOL     -0.118552
     64 C21        -0.2650    6.9810   -0.1480 c         1 MOL      0.601860
     65 O12        -1.2930    6.7790   -0.7710 o         1 MOL     -0.505720
     66 H26         1.6700    6.9320   -2.6980 hn        1 MOL      0.307210
     67 H27         0.9660    8.3290   -1.2760 h1        1 MOL      0.076654
     68 H28         1.7740    7.5240    0.0030 h1        1 MOL      0.076654
     69 N8         -0.3140    7.0650    1.1860 n         1 MOL     -0.354339
     70 C22        -1.6540    7.2530    1.9060 c3        1 MOL     -0.523946
     71 C23        -2.2900    5.9290    2.2570 c         1 MOL      0.620592
     72 O13        -3.4680    5.9290    2.6830 o         1 MOL     -0.563083
     73 C24        -1.5870    8.1230    3.2170 c3        1 MOL      0.525377
     74 C25        -0.6280    7.6280    4.2730 c3        1 MOL     -0.275072
     75 O14        -1.1030    9.2760    2.6900 oh        1 MOL     -0.612286
     76 H29         0.5240    7.3890    1.6510 hn        1 MOL      0.256039
     77 H30        -2.2650    7.7380    1.1560 h1        1 MOL      0.242011
     78 H31        -2.5120    8.3080    3.7670 h1        1 MOL      0.045676
     79 H32        -0.2950    8.9550    2.2810 ho        1 MOL      0.349571
     80 H33        -1.0080    6.6720    4.6200 hc        1 MOL      0.058287
     81 H34         0.3850    7.4670    3.9030 hc        1 MOL      0.058287
     82 H35        -0.6030    8.3300    5.1040 hc        1 MOL      0.058287
     83 N9         -1.6280    4.7610    1.9240 n         1 MOL     -0.276270
     84 C26        -2.2900    3.4760    2.1420 c3        1 MOL     -0.000142
     85 C27        -1.8950    2.4790    1.0410 c         1 MOL      0.464640
     86 O15        -1.0330    2.6850    0.1930 o         1 MOL     -0.446179
     87 C28        -2.1860    2.8750    3.5730 c3        1 MOL      0.266687
     88 C29        -0.8040    3.0970    4.2550 c3        1 MOL     -0.096174
     89 C30        -3.4540    3.1690    4.4540 c3        1 MOL     -0.298705
     90 C31        -0.3700    2.0950    5.3580 c3        1 MOL     -0.050300
     91 H36        -0.6780    4.7130    1.5760 hn        1 MOL      0.176193
     92 H37        -3.3690    3.5400    1.9910 h1        1 MOL      0.053439
     93 H38        -2.2330    1.7830    3.4480 hc        1 MOL     -0.045491
     94 H39        -0.7410    4.1430    4.5390 hc        1 MOL      0.036006
     95 H40        -0.0320    2.9290    3.5000 hc        1 MOL      0.036006
     96 H41        -4.3610    2.8340    3.9350 hc        1 MOL      0.062994
     97 H42        -3.4790    2.6130    5.3860 hc        1 MOL      0.062994
     98 H43        -3.5430    4.2440    4.6370 hc        1 MOL      0.062994
     99 H44        -0.4480    1.0510    5.0680 hc        1 MOL      0.015417
    100 H45         0.6300    2.4010    5.6580 hc        1 MOL      0.015417
    101 H46        -1.0650    2.1220    6.1980 hc        1 MOL      0.015417
    102 N10        -2.6240    1.3330    1.0600 n         1 MOL     -0.612368
    103 C32        -2.3470    0.2030    0.2250 c3        1 MOL      0.415867
    104 C33        -3.5730   -0.4650   -0.3600 c         1 MOL      0.345035
    105 O16        -3.6850   -1.6910   -0.4000 o         1 MOL     -0.379999
    106 C34        -1.5620   -0.8050    1.1090 c3        1 MOL     -0.369802
    107 C35        -0.6990   -1.7490    0.1660 c         1 MOL      0.878687
    108 O17        -0.7010   -1.4910   -1.0360 o         1 MOL     -0.797583
    109 O18         0.0270   -2.6350    0.5640 o         1 MOL     -0.797583
    110 H47        -3.3840    1.3300    1.7210 hn        1 MOL      0.301586
    111 H48        -1.7240    0.5120   -0.6170 h1        1 MOL      0.014261
    112 H49        -2.2120   -1.4610    1.6930 hc        1 MOL      0.095719
    113 H50        -0.8360   -0.2890    1.7340 hc        1 MOL      0.095719
    114 N11        -4.6370    0.2580   -0.6870 n         1 MOL     -0.436858
    115 C36        -5.9470   -0.2520   -1.0690 c3        1 MOL      0.206543
    116 C37        -6.5040   -1.2790   -0.1410 c         1 MOL      0.372210
    117 O19        -6.5540   -1.0240    1.0670 o         1 MOL     -0.559531
    118 C38        -6.9440    0.9080   -1.1030 c3        1 MOL     -0.277042
    119 C39        -8.3890    0.5070   -1.5230 ca        1 MOL      0.003714
    120 C40        -8.6870    0.7420   -2.7940 ca        1 MOL     -0.073408
    121 C41        -9.3400    0.0100   -0.5810 ca        1 MOL     -0.073408
    122 C42        -9.9460    0.3700   -3.3200 ca        1 MOL     -0.156685
    123 C43       -10.6320   -0.2930   -1.1050 ca        1 MOL     -0.156685
    124 C44       -10.9610   -0.2330   -2.5270 ca        1 MOL     -0.111318
    125 H51        -4.5270    1.2400   -0.5140 hn        1 MOL      0.241388
    126 H52        -5.9110   -0.5230   -2.1240 h1        1 MOL      0.031172
    127 H53        -6.5370    1.6750   -1.7680 hc        1 MOL      0.114481
    128 H54        -6.9460    1.2880   -0.0900 hc        1 MOL      0.114481
    129 H55        -7.9990    1.2820   -3.4350 ha        1 MOL      0.112405
    130 H56        -9.0900   -0.1780    0.4480 ha        1 MOL      0.112405
    131 H57       -10.1230    0.4840   -4.3820 ha        1 MOL      0.108894
    132 H58       -11.3990   -0.6980   -0.4580 ha        1 MOL      0.108894
    133 H59       -11.9090   -0.5560   -2.9270 ha        1 MOL      0.123246
    134 N12        -6.9650   -2.4560   -0.6040 n         1 MOL      0.019423
    135 C45        -7.6860   -3.3670    0.2630 c3        1 MOL      0.303621
    136 C46        -6.7790   -4.1320    1.2160 c         1 MOL      0.124397
    137 O20        -7.3030   -4.7550    2.1370 o         1 MOL     -0.472876
    138 C47        -8.6570   -4.2030   -0.5920 c3        1 MOL     -0.536836
    139 C48        -8.3910   -3.6560   -2.0050 c3        1 MOL      0.264223
    140 C49        -7.0620   -2.9710   -1.9420 c3        1 MOL     -0.089750
    141 H60        -8.3890   -2.7520    0.8320 h1        1 MOL      0.037598
    142 H61        -8.3200   -5.2400   -0.5840 hc        1 MOL      0.153959
    143 H62        -9.6630   -3.9700   -0.2580 hc        1 MOL      0.153959
    144 H63        -8.3540   -4.4080   -2.7910 hc        1 MOL     -0.043137
    145 H64        -9.0880   -2.8970   -2.3720 hc        1 MOL     -0.043137
    146 H65        -6.2330   -3.6410   -2.1940 h1        1 MOL      0.032233
    147 H66        -7.0900   -2.1240   -2.6220 h1        1 MOL      0.032233
    148 N13        -5.4670   -4.1890    0.9950 n         1 MOL      0.172051
    149 C50        -4.4370   -4.8810    1.7800 c3        1 MOL     -0.588970
    150 C51        -4.2220   -4.3290    3.2040 c         1 MOL      0.699679
    151 O21        -4.2400   -5.0810    4.1430 o         1 MOL     -0.553843
    152 C52        -3.1040   -4.7240    1.0160 c3        1 MOL      0.483252
    153 C53        -3.0180   -5.2540   -0.3700 c3        1 MOL     -0.222974
    154 C54        -1.6150   -5.1440   -0.9530 c         1 MOL      0.665299
    155 O22        -1.4580   -4.4790   -2.0270 o         1 MOL     -0.741443
    156 O23        -0.5960   -5.6090   -0.3790 o         1 MOL     -0.741443
    157 H67        -5.0550   -3.5980    0.3010 hn        1 MOL     -0.017709
    158 H68        -4.7200   -5.9300    1.8660 h1        1 MOL      0.185398
    159 H69        -2.3070   -5.2180    1.5740 hc        1 MOL     -0.067146
    160 H70        -2.8560   -3.6560    1.0520 hc        1 MOL     -0.067146
    161 H71        -3.6930   -4.7170   -1.0400 hc        1 MOL      0.020272
    162 H72        -3.2800   -6.3000   -0.2210 hc        1 MOL      0.020272
    163 N14        -4.0440   -3.0150    3.4450 n         1 MOL     -0.339345
    164 C55        -3.8070   -2.5270    4.8490 c3        1 MOL     -0.440406
    165 H73        -4.7260   -2.6280    5.4270 h1        1 MOL      0.162067
    166 H74        -3.0200   -3.1210    5.3130 h1        1 MOL      0.162067
    167 H75        -3.5060   -1.4800    4.8240 h1        1 MOL      0.162067
    168 H76        -3.9740   -2.3110    2.7180 hn        1 MOL      0.291164
    169 Ca1         1.0100   -3.6980   -1.6300 Ca        1 MOL      1.772629
    170 O24         0.6530   -3.2110   -4.4140 oh        1 MOL     -0.797837
    171 H77         0.4210   -4.0220   -4.8610 ho        1 MOL      0.398088
    172 H78         0.4810   -2.5250   -5.0460 ho        1 MOL      0.398088
    173 O25         1.3620   -6.0920   -2.7500 oh        1 MOL     -0.797837
    174 H79         1.9290   -6.7850   -2.4050 ho        1 MOL      0.398088
    175 H80         0.6700   -6.5530   -3.2180 ho        1 MOL      0.398088
    176 O26         2.7890   -4.9920   -0.1200 oh        1 MOL     -0.797837
    177 H81         3.4420   -4.3350    0.1350 ho        1 MOL      0.398088
    178 H82         3.1120   -5.8080    0.2570 ho        1 MOL      0.398088
@<TRIPOS>BOND
     1    1    2 1   
     2    1    4 1   
     3    1    5 1   
     4    1    6 1   
     5    2    3 2   
     6    2    7 1   
     7    7    8 1   
     8    7   15 1   
     9    8    9 1   
    10    8   11 1   
    11    8   16 1   
    12    9   10 2   
    13    9   19 1   
    14   11   12 1   
    15   11   17 1   
    16   11   18 1   
    17   12   13 1   
    18   12   14 1   
    19   19   20 1   
    20   19   24 1   
    21   20   21 1   
    22   20   23 1   
    23   20   25 1   
    24   21   22 2   
    25   21   29 1   
    26   23   26 1   
    27   23   27 1   
    28   23   28 1   
    29   29   30 1   
    30   29   37 1   
    31   30   31 1   
    32   30   33 1   
    33   30   38 1   
    34   31   32 2   
    35   31   41 1   
    36   33   34 1   
    37   33   39 1   
    38   33   40 1   
    39   34   35 1   
    40   34   36 1   
    41   41   42 1   
    42   41   45 1   
    43   42   43 1   
    44   42   46 1   
    45   42   47 1   
    46   43   44 2   
    47   43   48 1   
    48   48   49 1   
    49   48   56 1   
    50   49   50 1   
    51   49   52 1   
    52   49   57 1   
    53   50   51 2   
    54   50   62 1   
    55   52   53 1   
    56   52   58 1   
    57   52   59 1   
    58   53   54 1   
    59   53   55 2   
    60   54   60 1   
    61   54   61 1   
    62   62   63 1   
    63   62   66 1   
    64   63   64 1   
    65   63   67 1   
    66   63   68 1   
    67   64   65 2   
    68   64   69 1   
    69   69   70 1   
    70   69   76 1   
    71   70   71 1   
    72   70   73 1   
    73   70   77 1   
    74   71   72 2   
    75   71   83 1   
    76   73   74 1   
    77   73   75 1   
    78   73   78 1   
    79   74   80 1   
    80   74   81 1   
    81   74   82 1   
    82   75   79 1   
    83   83   84 1   
    84   83   91 1   
    85   84   85 1   
    86   84   87 1   
    87   84   92 1   
    88   85   86 2   
    89   85  102 1   
    90   87   88 1   
    91   87   89 1   
    92   87   93 1   
    93   88   90 1   
    94   88   94 1   
    95   88   95 1   
    96   89   96 1   
    97   89   97 1   
    98   89   98 1   
    99   90   99 1   
   100   90  100 1   
   101   90  101 1   
   102  102  103 1   
   103  102  110 1   
   104  103  104 1   
   105  103  106 1   
   106  103  111 1   
   107  104  105 2   
   108  104  114 1   
   109  106  107 1   
   110  106  112 1   
   111  106  113 1   
   112  107  108 1   
   113  107  109 1   
   114  114  115 1   
   115  114  125 1   
   116  115  116 1   
   117  115  118 1   
   118  115  126 1   
   119  116  117 2   
   120  116  134 1   
   121  118  119 1   
   122  118  127 1   
   123  118  128 1   
   124  119  120 ar  
   125  119  121 ar  
   126  120  122 ar  
   127  120  129 1   
   128  121  123 ar  
   129  121  130 1   
   130  122  124 ar  
   131  122  131 1   
   132  123  124 ar  
   133  123  132 1   
   134  124  133 1   
   135  134  135 1   
   136  134  140 1   
   137  135  136 1   
   138  135  138 1   
   139  135  141 1   
   140  136  137 2   
   141  136  148 1   
   142  138  139 1   
   143  138  142 1   
   144  138  143 1   
   145  139  140 1   
   146  139  144 1   
   147  139  145 1   
   148  140  146 1   
   149  140  147 1   
   150  148  149 1   
   151  148  157 1   
   152  149  150 1   
   153  149  152 1   
   154  149  158 1   
   155  150  151 2   
   156  150  163 1   
   157  152  153 1   
   158  152  159 1   
   159  152  160 1   
   160  153  154 1   
   161  153  161 1   
   162  153  162 1   
   163  154  155 1   
   164  154  156 1   
   165  163  164 1   
   166  163  168 1   
   167  164  165 1   
   168  164  166 1   
   169  164  167 1   
   170  170  171 1   
   171  170  172 1   
   172  173  174 1   
   173  173  175 1   
   174  176  177 1   
   175  176  178 1   
@<TRIPOS>SUBSTRUCTURE
     1 MOL         1 TEMP              0 ****  ****    0 ROOT
