@<TRIPOS>MOLECULE
MOL
  178   175     1     0     0
SMALL
resp


@<TRIPOS>ATOM
      1 C1         -6.4540    7.3220    2.5540 c3        1 MOL     -0.329689
      2 C2         -7.2420    6.8710    1.2720 c         1 MOL      0.675162
      3 O1         -7.0930    7.4730    0.2150 o         1 MOL     -0.567913
      4 H1         -7.1290    7.3340    3.4100 hc        1 MOL      0.077365
      5 H2         -5.6400    6.6230    2.7440 hc        1 MOL      0.077365
      6 H3         -6.0470    8.3210    2.3980 hc        1 MOL      0.077365
      7 N1         -8.0350    5.7630    1.3560 n         1 MOL     -0.621033
      8 C3         -8.7790    5.2970    0.2320 c3        1 MOL      0.291784
      9 C4         -7.8840    4.4450   -0.7090 c         1 MOL      0.456774
     10 O2         -8.1470    4.3090   -1.8920 o         1 MOL     -0.508165
     11 C5         -9.8910    4.4150    0.7940 c3        1 MOL     -0.265879
     12 C6        -10.8220    3.9470   -0.2900 c         1 MOL      0.712983
     13 O3        -11.3430    4.7310   -1.1480 o         1 MOL     -0.729563
     14 O4        -11.1210    2.6670   -0.2860 o         1 MOL     -0.729563
     15 H4         -8.0490    5.2240    2.2110 hn        1 MOL      0.309538
     16 H5         -9.2640    6.1160   -0.3000 h1        1 MOL      0.047147
     17 H6        -10.5420    4.9720    1.4750 hc        1 MOL      0.018746
     18 H7         -9.4560    3.5470    1.2830 hc        1 MOL      0.018746
     19 N2         -6.7730    3.9540   -0.1760 n         1 MOL     -0.358784
     20 C7         -5.7850    3.0920   -0.8740 c3        1 MOL     -0.038934
     21 C8         -4.8680    2.3150    0.1070 c         1 MOL      0.597623
     22 O5         -4.4280    2.8780    1.0510 o         1 MOL     -0.545608
     23 C9         -4.8290    3.9930   -1.6230 c3        1 MOL     -0.145500
     24 H8         -6.5630    4.1350    0.7920 hn        1 MOL      0.226855
     25 H9         -6.2630    2.4220   -1.5870 h1        1 MOL      0.131503
     26 H10        -4.1860    4.6150   -0.9980 hc        1 MOL      0.053243
     27 H11        -4.0530    3.4250   -2.1360 hc        1 MOL      0.053243
     28 H12        -5.2970    4.5750   -2.4070 hc        1 MOL      0.053243
     29 N3         -4.4620    1.0950   -0.1540 n         1 MOL     -0.352699
     30 C10        -5.2090    0.0910   -0.9740 c3        1 MOL     -0.124616
     31 C11        -5.3430   -1.2560   -0.2450 c         1 MOL      0.546718
     32 O6         -4.5350   -1.6580    0.5990 o         1 MOL     -0.486292
     33 C12        -4.7030   -0.0370   -2.4180 c3        1 MOL     -0.332944
     34 C13        -3.2670   -0.6090   -2.5730 c         1 MOL      0.737686
     35 O7         -2.5430   -0.8160   -1.5410 o         1 MOL     -0.708826
     36 O8         -2.8180   -0.9070   -3.7170 o         1 MOL     -0.708826
     37 H13        -3.6820    0.7030    0.3550 hn        1 MOL      0.220988
     38 H14        -6.2510    0.3520   -1.1720 h1        1 MOL      0.094781
     39 H15        -4.8570    0.9550   -2.8470 hc        1 MOL      0.113943
     40 H16        -5.3800   -0.8050   -2.7830 hc        1 MOL      0.113943
     41 N4         -6.4830   -1.9650   -0.5020 n         1 MOL     -0.493803
     42 C14        -6.7350   -3.3010   -0.0420 c3        1 MOL      0.120002
     43 C15        -6.7810   -4.2040   -1.2910 c         1 MOL      0.517345
     44 O9         -7.8410   -4.4860   -1.8600 o         1 MOL     -0.560740
     45 H17        -7.1650   -1.6320   -1.1700 hn        1 MOL      0.334822
     46 H18        -7.7170   -3.3490    0.4270 h1        1 MOL      0.021997
     47 H19        -5.9430   -3.7470    0.5610 h1        1 MOL      0.021997
     48 N5         -5.6250   -4.7070   -1.7510 n         1 MOL     -0.502613
     49 C16        -4.2570   -4.4550   -1.1800 c3        1 MOL      0.008286
     50 C17        -4.0530   -5.2260    0.1040 c         1 MOL      0.602100
     51 O10        -4.3560   -6.4500    0.2180 o         1 MOL     -0.589807
     52 C18        -3.2280   -4.5820   -2.2760 c3        1 MOL     -0.130808
     53 C19        -1.7760   -4.2030   -1.8160 c         1 MOL      0.538558
     54 N6         -0.8020   -4.4000   -2.6610 n         1 MOL     -0.673505
     55 O11        -1.6200   -3.7670   -0.7020 o         1 MOL     -0.467099
     56 H20        -5.6950   -5.3140   -2.5680 hn        1 MOL      0.312595
     57 H21        -4.3520   -3.4000   -0.9320 h1        1 MOL      0.146710
     58 H22        -3.5790   -4.0120   -3.1410 hc        1 MOL      0.059357
     59 H23        -3.3180   -5.6140   -2.6210 hc        1 MOL      0.059357
     60 H24        -0.9590   -4.7480   -3.5900 hn        1 MOL      0.346742
     61 H25         0.1360   -4.1540   -2.3770 hn        1 MOL      0.346742
     62 N7         -3.6460   -4.5490    1.1550 n         1 MOL     -0.191098
     63 C20        -3.2770   -5.1400    2.4740 c3        1 MOL     -0.232589
     64 C21        -1.8020   -5.4450    2.7540 c         1 MOL      0.522277
     65 O12        -1.6140   -6.2550    3.6400 o         1 MOL     -0.570114
     66 H26        -3.2450   -3.6520    0.9090 hn        1 MOL      0.144766
     67 H27        -3.8410   -6.0700    2.5470 h1        1 MOL      0.112251
     68 H28        -3.6710   -4.4680    3.2410 h1        1 MOL      0.112251
     69 N8         -0.8780   -5.0120    1.9190 n         1 MOL     -0.104068
     70 C22         0.5430   -5.1030    2.0080 c3        1 MOL     -0.047659
     71 C23         1.2320   -3.7780    1.7930 c         1 MOL      0.364705
     72 O13         0.6590   -2.7160    1.5640 o         1 MOL     -0.444751
     73 C24         1.1450   -6.1860    1.0830 c3        1 MOL      0.381433
     74 C25         0.6070   -7.6080    1.3660 c3        1 MOL     -0.480057
     75 O14         0.7460   -5.8860   -0.2690 oh        1 MOL     -0.650338
     76 H29        -1.1830   -4.4610    1.1240 hn        1 MOL      0.103048
     77 H30         0.7590   -5.3680    3.0470 h1        1 MOL      0.031863
     78 H31         2.2370   -6.1260    1.1170 h1        1 MOL     -0.018206
     79 H32         1.3490   -5.2130   -0.5910 ho        1 MOL      0.445270
     80 H33         0.9910   -7.9380    2.3300 hc        1 MOL      0.130912
     81 H34        -0.4790   -7.5180    1.3150 hc        1 MOL      0.130912
     82 H35         0.9080   -8.3250    0.6030 hc        1 MOL      0.130912
     83 N9          2.5090   -3.7600    2.2970 n         1 MOL     -0.266043
     84 C26         3.5000   -2.7330    2.1620 c3        1 MOL     -0.013182
     85 C27         4.1450   -2.8860    0.8330 c         1 MOL      0.307564
     86 O15         4.7760   -3.9470    0.5860 o         1 MOL     -0.533296
     87 C28         4.4690   -2.6950    3.3370 c3        1 MOL      0.182521
     88 C29         5.5700   -1.5410    3.2050 c3        1 MOL     -0.062365
     89 C30         3.7440   -2.7770    4.7150 c3        1 MOL     -0.434309
     90 C31         5.0640   -0.1920    3.6520 c3        1 MOL     -0.029607
     91 H36         2.9350   -4.6100    2.6280 hn        1 MOL      0.250629
     92 H37         2.9940   -1.7640    2.1020 h1        1 MOL      0.078829
     93 H38         4.9440   -3.6650    3.2330 hc        1 MOL     -0.010928
     94 H39         5.9350   -1.3640    2.1870 hc        1 MOL      0.012515
     95 H40         6.4710   -1.8260    3.7580 hc        1 MOL      0.012515
     96 H41         3.2470   -3.7460    4.7090 hc        1 MOL      0.110734
     97 H42         4.5170   -2.7960    5.4880 hc        1 MOL      0.110734
     98 H43         3.0540   -1.9330    4.7790 hc        1 MOL      0.110734
     99 H44         5.8250    0.5700    3.4790 hc        1 MOL      0.002729
    100 H45         4.2200    0.2070    3.0940 hc        1 MOL      0.002729
    101 H46         4.8380   -0.1880    4.7250 hc        1 MOL      0.002729
    102 N10         4.0060   -1.9100   -0.0710 n         1 MOL     -0.238351
    103 C32         4.5540   -2.0030   -1.4230 c3        1 MOL      0.100394
    104 C33         5.3680   -0.7260   -1.8540 c         1 MOL      0.477706
    105 O16         5.7410   -0.6030   -3.0120 o         1 MOL     -0.535389
    106 C34         3.4060   -2.2300   -2.4420 c3        1 MOL     -0.179675
    107 C35         2.4070   -3.2710   -1.9730 c         1 MOL      0.652008
    108 O17         2.5080   -4.4690   -2.3650 o         1 MOL     -0.675761
    109 O18         1.4960   -2.9470   -1.2000 o         1 MOL     -0.675761
    110 H47         3.4020   -1.1610    0.2400 hn        1 MOL      0.256171
    111 H48         5.2260   -2.8650   -1.4610 h1        1 MOL      0.088293
    112 H49         3.8400   -2.4810   -3.4040 hc        1 MOL      0.048254
    113 H50         2.9290   -1.2840   -2.6870 hc        1 MOL      0.048254
    114 N11         5.7410    0.1650   -0.8990 n         1 MOL     -0.564908
    115 C36         6.7930    1.1300   -1.0580 c3        1 MOL      0.506413
    116 C37         6.2510    2.4570   -0.4180 c         1 MOL      0.189624
    117 O19         6.0140    2.4710    0.8200 o         1 MOL     -0.485943
    118 C38         7.9990    0.6410   -0.3170 c3        1 MOL     -0.079647
    119 C39         9.2500    1.1380   -1.0270 ca        1 MOL     -0.010013
    120 C40         9.8050    2.3700   -0.7470 ca        1 MOL     -0.112422
    121 C41         9.7480    0.4640   -2.1950 ca        1 MOL     -0.112422
    122 C42        10.8420    2.8620   -1.5010 ca        1 MOL     -0.137880
    123 C43        10.8270    0.9780   -2.9100 ca        1 MOL     -0.137880
    124 C44        11.3510    2.2090   -2.6430 ca        1 MOL     -0.090701
    125 H51         5.2500    0.0860   -0.0170 hn        1 MOL      0.273427
    126 H52         6.9790    1.2900   -2.1240 h1        1 MOL     -0.010445
    127 H53         7.9980   -0.4440   -0.3930 hc        1 MOL      0.046551
    128 H54         8.1240    0.8590    0.7440 hc        1 MOL      0.046551
    129 H55         9.4950    2.9550    0.1100 ha        1 MOL      0.110925
    130 H56         9.3750   -0.5190   -2.4700 ha        1 MOL      0.110925
    131 H57        11.3110    3.8140   -1.2980 ha        1 MOL      0.101924
    132 H58        11.1890    0.4810   -3.8070 ha        1 MOL      0.101924
    133 H59        12.0810    2.7160   -3.2520 ha        1 MOL      0.101096
    134 N12         6.0430    3.5700   -1.1290 n         1 MOL     -0.110711
    135 C45         5.9730    4.9000   -0.5830 c3        1 MOL      0.053155
    136 C46         4.7550    5.1660    0.3370 c         1 MOL      0.331991
    137 O20         4.7140    6.1860    1.0520 o         1 MOL     -0.500729
    138 C47         5.9110    5.8450   -1.7900 c3        1 MOL     -0.185816
    139 C48         6.6390    5.0890   -2.7970 c3        1 MOL      0.018886
    140 C49         6.0110    3.6590   -2.5470 c3        1 MOL     -0.109881
    141 H60         6.8540    5.0550    0.0400 h1        1 MOL      0.080338
    142 H61         4.8480    5.8600   -2.0120 hc        1 MOL      0.085390
    143 H62         6.3200    6.7970   -1.4610 hc        1 MOL      0.085390
    144 H63         6.4810    5.3870   -3.8340 hc        1 MOL      0.026465
    145 H64         7.7060    4.9330   -2.6300 hc        1 MOL      0.026465
    146 H65         5.0020    3.6150   -2.9380 h1        1 MOL      0.083021
    147 H66         6.6410    2.9790   -3.1210 h1        1 MOL      0.083021
    148 N13         3.7790    4.2300    0.4260 n         1 MOL     -0.094000
    149 C50         2.5300    4.4330    1.1480 c3        1 MOL     -0.303534
    150 C51         2.6570    4.7570    2.7020 c         1 MOL      0.591166
    151 O21         1.8340    5.4740    3.2690 o         1 MOL     -0.546624
    152 C52         1.5760    3.2370    1.0200 c3        1 MOL     -0.000180
    153 C53         2.1220    1.9050    1.6120 c3        1 MOL     -0.051696
    154 C54         1.4220    0.6810    1.0250 c         1 MOL      0.727989
    155 O22         1.9350   -0.0220    0.1010 o         1 MOL     -0.754910
    156 O23         0.2820    0.3390    1.5100 o         1 MOL     -0.754910
    157 H67         3.8540    3.4450   -0.2150 hn        1 MOL      0.221778
    158 H68         1.9710    5.2760    0.7430 h1        1 MOL      0.132977
    159 H69         1.4010    3.2270   -0.0580 hc        1 MOL      0.047319
    160 H70         0.6230    3.4900    1.4690 hc        1 MOL      0.047319
    161 H71         1.9610    1.9050    2.6870 hc        1 MOL      0.004643
    162 H72         3.1710    1.9100    1.3090 hc        1 MOL      0.004643
    163 N14         3.7080    4.2660    3.3610 n         1 MOL     -0.236525
    164 C55         4.0860    4.7170    4.7150 c3        1 MOL     -0.215911
    165 H73         3.2110    4.6900    5.3640 h1        1 MOL      0.097880
    166 H74         4.8550    4.0580    5.1170 h1        1 MOL      0.097880
    167 H75         4.4690    5.7370    4.6660 h1        1 MOL      0.097880
    168 H76         4.3130    3.6330    2.8530 hn        1 MOL      0.228904
    169 Ca1        -0.3930   -1.3480   -0.3830 Ca        1 MOL      1.715074
    170 O24        -2.0700   -1.8780    1.6280 oh        1 MOL     -0.854117
    171 H77        -1.7660   -1.2970    2.3300 ho        1 MOL      0.407977
    172 H78        -3.0010   -1.6920    1.5510 ho        1 MOL      0.407977
    173 O25        -0.1810    1.4840   -1.6350 oh        1 MOL     -0.854117
    174 H79        -0.5510    2.2790   -1.2430 ho        1 MOL      0.407977
    175 H80        -0.4530    1.5330   -2.5530 ho        1 MOL      0.407977
    176 O26        -0.2010   -1.2240   -3.0380 oh        1 MOL     -0.854117
    177 H81         0.4080   -0.8640   -3.6770 ho        1 MOL      0.407977
    178 H82        -1.0590   -1.1880   -3.4770 ho        1 MOL      0.407977
@<TRIPOS>BOND
     1    1    2 1   
     2    1    4 1   
     3    1    5 1   
     4    1    6 1   
     5    2    3 2   
     6    2    7 1   
     7    7    8 1   
     8    7   15 1   
     9    8    9 1   
    10    8   11 1   
    11    8   16 1   
    12    9   10 2   
    13    9   19 1   
    14   11   12 1   
    15   11   17 1   
    16   11   18 1   
    17   12   13 1   
    18   12   14 1   
    19   19   20 1   
    20   19   24 1   
    21   20   21 1   
    22   20   23 1   
    23   20   25 1   
    24   21   22 2   
    25   21   29 1   
    26   23   26 1   
    27   23   27 1   
    28   23   28 1   
    29   29   30 1   
    30   29   37 1   
    31   30   31 1   
    32   30   33 1   
    33   30   38 1   
    34   31   32 2   
    35   31   41 1   
    36   33   34 1   
    37   33   39 1   
    38   33   40 1   
    39   34   35 1   
    40   34   36 1   
    41   41   42 1   
    42   41   45 1   
    43   42   43 1   
    44   42   46 1   
    45   42   47 1   
    46   43   44 2   
    47   43   48 1   
    48   48   49 1   
    49   48   56 1   
    50   49   50 1   
    51   49   52 1   
    52   49   57 1   
    53   50   51 2   
    54   50   62 1   
    55   52   53 1   
    56   52   58 1   
    57   52   59 1   
    58   53   54 1   
    59   53   55 2   
    60   54   60 1   
    61   54   61 1   
    62   62   63 1   
    63   62   66 1   
    64   63   64 1   
    65   63   67 1   
    66   63   68 1   
    67   64   65 2   
    68   64   69 1   
    69   69   70 1   
    70   69   76 1   
    71   70   71 1   
    72   70   73 1   
    73   70   77 1   
    74   71   72 2   
    75   71   83 1   
    76   73   74 1   
    77   73   75 1   
    78   73   78 1   
    79   74   80 1   
    80   74   81 1   
    81   74   82 1   
    82   75   79 1   
    83   83   84 1   
    84   83   91 1   
    85   84   85 1   
    86   84   87 1   
    87   84   92 1   
    88   85   86 2   
    89   85  102 1   
    90   87   88 1   
    91   87   89 1   
    92   87   93 1   
    93   88   90 1   
    94   88   94 1   
    95   88   95 1   
    96   89   96 1   
    97   89   97 1   
    98   89   98 1   
    99   90   99 1   
   100   90  100 1   
   101   90  101 1   
   102  102  103 1   
   103  102  110 1   
   104  103  104 1   
   105  103  106 1   
   106  103  111 1   
   107  104  105 2   
   108  104  114 1   
   109  106  107 1   
   110  106  112 1   
   111  106  113 1   
   112  107  108 1   
   113  107  109 1   
   114  114  115 1   
   115  114  125 1   
   116  115  116 1   
   117  115  118 1   
   118  115  126 1   
   119  116  117 2   
   120  116  134 1   
   121  118  119 1   
   122  118  127 1   
   123  118  128 1   
   124  119  120 ar  
   125  119  121 ar  
   126  120  122 ar  
   127  120  129 1   
   128  121  123 ar  
   129  121  130 1   
   130  122  124 ar  
   131  122  131 1   
   132  123  124 ar  
   133  123  132 1   
   134  124  133 1   
   135  134  135 1   
   136  134  140 1   
   137  135  136 1   
   138  135  138 1   
   139  135  141 1   
   140  136  137 2   
   141  136  148 1   
   142  138  139 1   
   143  138  142 1   
   144  138  143 1   
   145  139  140 1   
   146  139  144 1   
   147  139  145 1   
   148  140  146 1   
   149  140  147 1   
   150  148  149 1   
   151  148  157 1   
   152  149  150 1   
   153  149  152 1   
   154  149  158 1   
   155  150  151 2   
   156  150  163 1   
   157  152  153 1   
   158  152  159 1   
   159  152  160 1   
   160  153  154 1   
   161  153  161 1   
   162  153  162 1   
   163  154  155 1   
   164  154  156 1   
   165  163  164 1   
   166  163  168 1   
   167  164  165 1   
   168  164  166 1   
   169  164  167 1   
   170  170  171 1   
   171  170  172 1   
   172  173  174 1   
   173  173  175 1   
   174  176  177 1   
   175  176  178 1   
@<TRIPOS>SUBSTRUCTURE
     1 MOL         1 TEMP              0 ****  ****    0 ROOT
