@<TRIPOS>MOLECULE
MOL
  192   187     1     0     0
SMALL
resp


@<TRIPOS>ATOM
      1 C1         -4.5520   -4.5100   -3.1080 c3        1 MOL     -0.427731
      2 C2         -5.1760   -3.8150   -1.9470 c         1 MOL      0.769863
      3 O1         -4.5580   -3.5330   -0.9290 o         1 MOL     -0.590426
      4 H1         -3.4710   -4.3780   -3.0710 hc        1 MOL      0.105721
      5 H2         -4.7890   -5.5730   -3.0670 hc        1 MOL      0.105721
      6 H3         -4.9380   -4.0870   -4.0360 hc        1 MOL      0.105721
      7 N1         -6.4280   -3.2810   -2.1390 n         1 MOL     -0.656947
      8 C3         -7.1030   -2.1780   -1.5450 c3        1 MOL      0.173360
      9 C4         -6.1760   -0.9250   -1.4620 c         1 MOL      0.328060
     10 O2         -5.7190   -0.5940   -0.3910 o         1 MOL     -0.490095
     11 C5         -7.8390   -2.6260   -0.2610 c3        1 MOL     -0.161284
     12 C6         -7.1260   -3.5970    0.6120 c         1 MOL      0.779083
     13 O3         -6.1100   -3.3140    1.2970 o         1 MOL     -0.741906
     14 O4         -7.6780   -4.6840    0.7800 o         1 MOL     -0.741906
     15 H4         -6.9550   -3.6240   -2.9350 hn        1 MOL      0.313412
     16 H5         -7.8460   -2.0070   -2.3320 h1        1 MOL      0.029064
     17 H6         -8.7940   -3.0270   -0.5740 hc        1 MOL      0.033525
     18 H7         -8.0400   -1.7370    0.3310 hc        1 MOL      0.033525
     19 N2         -5.8230   -0.3740   -2.6300 n         1 MOL     -0.316230
     20 C7         -4.9910    0.7830   -2.8460 c3        1 MOL      0.123008
     21 C8         -5.6130    2.0250   -2.2770 c         1 MOL      0.252669
     22 O5         -6.1360    2.7790   -3.1000 o         1 MOL     -0.545062
     23 C9         -3.5010    0.4890   -2.5680 c3        1 MOL      0.271782
     24 C10        -2.5810    1.6720   -2.9840 c3        1 MOL      0.137775
     25 C11        -3.1810   -0.8320   -3.2220 c3        1 MOL     -0.253434
     26 C12        -2.4630    1.6880   -4.5270 c3        1 MOL     -0.287694
     27 H8         -6.1840   -0.8750   -3.4290 hn        1 MOL      0.231546
     28 H9         -5.0580    0.9770   -3.9270 h1        1 MOL      0.035074
     29 H10        -3.3530    0.2480   -1.5200 hc        1 MOL     -0.168485
     30 H11        -1.6490    1.7390   -2.4310 hc        1 MOL     -0.013908
     31 H12        -3.0410    2.5960   -2.6390 hc        1 MOL     -0.013908
     32 H13        -3.6030   -1.6800   -2.6780 hc        1 MOL      0.039625
     33 H14        -3.6040   -0.7840   -4.2180 hc        1 MOL      0.039625
     34 H15        -2.0990   -0.9120   -3.3380 hc        1 MOL      0.039625
     35 H16        -2.0640    0.7090   -4.8060 hc        1 MOL      0.053841
     36 H17        -3.4060    1.8060   -5.0430 hc        1 MOL      0.053841
     37 H18        -1.8100    2.5070   -4.8300 hc        1 MOL      0.053841
     38 N3         -5.7640    2.2250   -0.9610 n         1 MOL      0.119136
     39 C13        -6.5950    3.2970   -0.4150 c3        1 MOL      0.021506
     40 C14        -5.8560    4.6700   -0.3120 c         1 MOL      0.502940
     41 O6         -6.4340    5.7640   -0.5330 o         1 MOL     -0.594499
     42 C15        -7.4460    3.0540    0.8600 c3        1 MOL     -0.145850
     43 C16        -8.0670    1.6800    0.8720 c         1 MOL      0.755390
     44 O7         -8.8580    1.5400   -0.0970 o         1 MOL     -0.718611
     45 O8         -7.8230    0.8150    1.7450 o         1 MOL     -0.718611
     46 H19        -5.5570    1.4920   -0.2980 hn        1 MOL      0.106614
     47 H20        -7.3660    3.5500   -1.1500 h1        1 MOL      0.044126
     48 H21        -8.2710    3.7450    0.9740 hc        1 MOL      0.025309
     49 H22        -6.8090    3.1840    1.7400 hc        1 MOL      0.025309
     50 N4         -4.6220    4.7680    0.1180 n         1 MOL     -0.571281
     51 C17        -3.6200    3.7170    0.5810 c3        1 MOL      0.259192
     52 C18        -2.5810    4.2700    1.5000 c         1 MOL      0.509407
     53 O9         -2.3490    5.4770    1.4640 o         1 MOL     -0.607351
     54 H23        -4.3610    5.6790    0.4700 hn        1 MOL      0.315925
     55 H24        -3.2100    3.1150   -0.2280 h1        1 MOL     -0.003095
     56 H25        -4.2260    3.0310    1.1800 h1        1 MOL     -0.003095
     57 N5         -1.9160    3.5580    2.4500 n         1 MOL     -0.425869
     58 C19        -2.0700    2.1870    2.9240 c3        1 MOL      0.176100
     59 C20        -2.1610    1.1450    1.8130 c         1 MOL      0.077703
     60 O10        -3.2410    0.5840    1.6420 o         1 MOL     -0.390750
     61 C21        -3.2560    2.1090    3.9030 c3        1 MOL     -0.288303
     62 C22        -3.4650    0.7880    4.6170 c         1 MOL      0.735374
     63 O11        -2.5510   -0.0420    4.8340 o         1 MOL     -0.703608
     64 O12        -4.6830    0.5790    4.9590 o         1 MOL     -0.703608
     65 H26        -1.2880    4.1380    2.9830 hn        1 MOL      0.262163
     66 H27        -1.1100    1.9160    3.3530 h1        1 MOL      0.048489
     67 H28        -4.2020    2.2910    3.3890 hc        1 MOL      0.071112
     68 H29        -3.0610    2.9260    4.5950 hc        1 MOL      0.071112
     69 N6         -1.1490    0.7380    1.0440 n         1 MOL     -0.053546
     70 C23         0.1650    1.3030    1.0880 c3        1 MOL     -0.056071
     71 C24         0.2740    2.6820    0.3470 c         1 MOL      0.394726
     72 O13        -0.7070    3.1680   -0.2520 o         1 MOL     -0.448028
     73 H30        -1.3370   -0.0180    0.3960 hn        1 MOL      0.174416
     74 H31         0.8400    0.5900    0.6200 h1        1 MOL      0.041896
     75 H32         0.4950    1.3620    2.1210 h1        1 MOL      0.041896
     76 N7          1.4880    3.2170    0.4550 n         1 MOL     -0.392648
     77 C25         1.8880    4.5460   -0.1670 c3        1 MOL      0.037422
     78 C26         2.6410    4.4230   -1.5000 c         1 MOL      0.507151
     79 O14         3.0200    5.4650   -1.9700 o         1 MOL     -0.519420
     80 C27         2.6520    5.3550    0.9250 c3        1 MOL     -0.044522
     81 C28         1.6430    5.8630    1.9060 c3        1 MOL     -0.262301
     82 C29         2.2160    6.5200    3.1940 c         1 MOL      0.655803
     83 N8          1.5100    7.3850    3.8580 n         1 MOL     -0.736324
     84 O15         3.3650    6.2940    3.6360 o         1 MOL     -0.567261
     85 H33         2.1430    2.8200    1.1200 hn        1 MOL      0.279197
     86 H34         1.0210    5.1160   -0.5240 h1        1 MOL      0.111192
     87 H35         3.1370    6.2330    0.4930 hc        1 MOL      0.047321
     88 H36         3.4650    4.7500    1.3300 hc        1 MOL      0.047321
     89 H37         0.9900    5.0440    2.2090 hc        1 MOL      0.102421
     90 H38         1.1080    6.6520    1.3800 hc        1 MOL      0.102421
     91 H39         0.6370    7.7280    3.4870 hn        1 MOL      0.339844
     92 H40         1.9730    8.0200    4.5010 hn        1 MOL      0.339844
     93 N9          2.9190    3.2010   -1.8810 n         1 MOL     -0.407255
     94 C30         3.3900    2.8370   -3.2250 c3        1 MOL     -0.008672
     95 C31         4.6760    1.9150   -3.3430 c         1 MOL      0.553447
     96 O16         5.1200    1.7610   -4.4730 o         1 MOL     -0.545934
     97 C32         2.2490    2.2080   -4.1080 c3        1 MOL      0.045454
     98 C33         1.1430    3.2080   -4.3500 c3        1 MOL     -0.176056
     99 C34         1.5360    1.0000   -3.4350 c3        1 MOL     -0.176056
    100 H41         2.5350    2.4140   -1.3730 hn        1 MOL      0.214991
    101 H42         3.6350    3.8000   -3.6560 h1        1 MOL      0.105107
    102 H43         2.6290    1.9330   -5.0930 hc        1 MOL      0.042170
    103 H44         0.4960    3.1880   -3.4670 hc        1 MOL      0.054886
    104 H45         1.5560    4.1540   -4.7030 hc        1 MOL      0.054886
    105 H46         0.4780    2.8940   -5.1570 hc        1 MOL      0.054886
    106 H47         1.1810    1.3500   -2.4580 hc        1 MOL      0.054886
    107 H48         0.7590    0.6740   -4.1220 hc        1 MOL      0.054886
    108 H49         2.2920    0.2850   -3.1280 hc        1 MOL      0.054886
    109 N10         5.2910    1.4320   -2.2330 n         1 MOL     -0.439832
    110 C35         6.6600    0.9510   -2.1260 c3        1 MOL      0.010457
    111 C36         6.7700   -0.4310   -1.4300 c         1 MOL      0.614910
    112 O17         7.7850   -1.0730   -1.6330 o         1 MOL     -0.560957
    113 C37         7.4540    2.0200   -1.3470 c3        1 MOL     -0.379552
    114 C38         7.5900    3.3730   -2.1560 c         1 MOL      0.654108
    115 N11         7.7510    3.3760   -3.3970 n         1 MOL     -0.685864
    116 O18         7.7040    4.4280   -1.5620 o         1 MOL     -0.577414
    117 H50         4.7000    1.3350   -1.4260 hn        1 MOL      0.252223
    118 H51         7.0900    0.8840   -3.1200 h1        1 MOL      0.092317
    119 H52         8.4540    1.6770   -1.0580 hc        1 MOL      0.140766
    120 H53         6.9470    2.1260   -0.3900 hc        1 MOL      0.140766
    121 H54         7.7480    2.5380   -3.9620 hn        1 MOL      0.347706
    122 H55         8.0210    4.2800   -3.7600 hn        1 MOL      0.347706
    123 N12         5.8040   -0.8220   -0.6020 n         1 MOL     -0.499742
    124 C39         5.9680   -1.8300    0.3850 c3        1 MOL      0.046816
    125 C40         4.6530   -2.7080    0.5170 c         1 MOL      0.426038
    126 O19         3.5790   -2.1890    0.7060 o         1 MOL     -0.438227
    127 C41         6.2550   -1.2280    1.7340 c3        1 MOL     -0.097029
    128 C42         7.6420   -0.5610    1.9260 ca        1 MOL      0.075074
    129 C43         7.7390    0.7780    2.2850 ca        1 MOL     -0.118790
    130 C44         8.7960   -1.3340    1.9040 ca        1 MOL     -0.118790
    131 C45         8.9500    1.3580    2.7020 ca        1 MOL     -0.324199
    132 C46        10.0460   -0.8270    2.2310 ca        1 MOL     -0.324199
    133 C47        10.0600    0.5250    2.6300 ca        1 MOL      0.384108
    134 O20        11.2730    1.0930    2.8980 oh        1 MOL     -0.484953
    135 H56         5.0050   -0.2310   -0.4200 hn        1 MOL      0.289938
    136 H57         6.7400   -2.5600    0.1230 h1        1 MOL      0.079858
    137 H58         6.1700   -2.0300    2.4530 hc        1 MOL      0.064106
    138 H59         5.5200   -0.4690    1.9800 hc        1 MOL      0.064106
    139 H60         6.8450    1.3780    2.3070 ha        1 MOL      0.123246
    140 H61         8.7090   -2.3230    1.4750 ha        1 MOL      0.123246
    141 H62         8.9610    2.4020    2.9740 ha        1 MOL      0.176601
    142 H63        10.9850   -1.3370    2.1090 ha        1 MOL      0.176601
    143 H64        11.8750    0.3460    2.8620 ho        1 MOL      0.325347
    144 N13         4.8390   -4.0530    0.4990 n         1 MOL     -0.466681
    145 C48         3.8050   -5.0960    0.5860 c3        1 MOL      0.080776
    146 C49         2.6430   -5.0920   -0.4410 c         1 MOL      0.250873
    147 O21         2.1580   -6.2060   -0.6850 o         1 MOL     -0.487315
    148 C50         3.1880   -5.1690    1.9460 c3        1 MOL      0.518068
    149 C51         4.3450   -5.4090    2.9400 c3        1 MOL     -0.430992
    150 C52         3.8280   -5.7820    4.3010 c         1 MOL      0.790748
    151 O22         2.7350   -6.3110    4.3490 o         1 MOL     -0.758248
    152 O23         4.5360   -5.4940    5.3120 o         1 MOL     -0.758248
    153 H65         5.7740   -4.4210    0.4360 hn        1 MOL      0.284998
    154 H66         4.2540   -6.0870    0.4640 h1        1 MOL      0.032607
    155 H67         2.5480   -6.0530    1.8710 hc        1 MOL     -0.068722
    156 H68         2.5900   -4.2790    2.1420 hc        1 MOL     -0.068722
    157 H69         4.9270   -4.4850    2.9680 hc        1 MOL      0.039077
    158 H70         4.9130   -6.2410    2.5250 hc        1 MOL      0.039077
    159 N14         2.1230   -3.9850   -0.9940 n         1 MOL     -0.110340
    160 C53         1.1220   -3.9710   -2.0780 c3        1 MOL     -0.272663
    161 C54         1.5700   -4.6870   -3.3580 c         1 MOL      0.627078
    162 O24         0.7600   -5.1220   -4.1300 o         1 MOL     -0.544544
    163 C55         0.7040   -2.5110   -2.4040 c3        1 MOL     -0.099060
    164 C56         0.2860   -1.6960   -1.1450 c3        1 MOL      0.637140
    165 C57        -0.9080   -2.2890   -0.4130 c         1 MOL      0.518786
    166 O25        -1.8930   -1.6160   -0.0150 o         1 MOL     -0.628080
    167 O26        -0.6930   -3.4080    0.1230 o         1 MOL     -0.628080
    168 H71         2.4360   -3.1420   -0.5320 hn        1 MOL      0.151512
    169 H72         0.1840   -4.4710   -1.8160 h1        1 MOL      0.171061
    170 H73        -0.1400   -2.5510   -3.0920 hc        1 MOL     -0.003466
    171 H74         1.5230   -1.9270   -2.8330 hc        1 MOL     -0.003466
    172 H75        -0.0150   -0.7210   -1.5370 hc        1 MOL     -0.199251
    173 H76         1.1120   -1.5810   -0.4420 hc        1 MOL     -0.199251
    174 N15         2.8830   -4.8290   -3.6380 n         1 MOL     -0.312995
    175 C58         3.4300   -5.7380   -4.6500 c3        1 MOL     -0.331171
    176 H77         4.5190   -5.6800   -4.6410 h1        1 MOL      0.129955
    177 H78         3.1190   -6.7590   -4.4280 h1        1 MOL      0.129955
    178 H79         3.0600   -5.4500   -5.6350 h1        1 MOL      0.129955
    179 H80         3.5180   -4.5290   -2.9140 hn        1 MOL      0.215012
    180 Ca1        -3.9750   -2.0420    1.2460 Ca        1 MOL      1.793008
    181 O27        -2.8700   -4.5670    1.2890 oh        1 MOL     -0.813443
    182 H81        -2.8720   -5.5090    1.4440 ho        1 MOL      0.388369
    183 H82        -1.9960   -4.3720    0.9610 ho        1 MOL      0.388369
    184 O28        -4.7140   -3.0680    3.8860 oh        1 MOL     -0.813443
    185 H83        -4.4660   -3.7170    4.5370 ho        1 MOL      0.388369
    186 H84        -5.2670   -2.4530    4.3710 ho        1 MOL      0.388369
    187 O29        -2.0290   -2.0140    2.9880 oh        1 MOL     -0.813443
    188 H85        -1.1520   -2.3840    3.1100 ho        1 MOL      0.388369
    189 H86        -2.0820   -1.3110    3.6350 ho        1 MOL      0.388369
    190 O30        -5.6030   -0.3330    2.6160 oh        1 MOL     -0.813443
    191 H87        -5.5560   -0.0270    3.5130 ho        1 MOL      0.388369
    192 H88        -6.3810    0.0890    2.2520 ho        1 MOL      0.388369
@<TRIPOS>BOND
     1    1    2 1   
     2    1    4 1   
     3    1    5 1   
     4    1    6 1   
     5    2    3 2   
     6    2    7 1   
     7    7    8 1   
     8    7   15 1   
     9    8    9 1   
    10    8   11 1   
    11    8   16 1   
    12    9   10 2   
    13    9   19 1   
    14   11   12 1   
    15   11   17 1   
    16   11   18 1   
    17   12   13 1   
    18   12   14 1   
    19   19   20 1   
    20   19   27 1   
    21   20   21 1   
    22   20   23 1   
    23   20   28 1   
    24   21   22 2   
    25   21   38 1   
    26   23   24 1   
    27   23   25 1   
    28   23   29 1   
    29   24   26 1   
    30   24   30 1   
    31   24   31 1   
    32   25   32 1   
    33   25   33 1   
    34   25   34 1   
    35   26   35 1   
    36   26   36 1   
    37   26   37 1   
    38   38   39 1   
    39   38   46 1   
    40   39   40 1   
    41   39   42 1   
    42   39   47 1   
    43   40   41 2   
    44   40   50 1   
    45   42   43 1   
    46   42   48 1   
    47   42   49 1   
    48   43   44 1   
    49   43   45 1   
    50   50   51 1   
    51   50   54 1   
    52   51   52 1   
    53   51   55 1   
    54   51   56 1   
    55   52   53 2   
    56   52   57 1   
    57   57   58 1   
    58   57   65 1   
    59   58   59 1   
    60   58   61 1   
    61   58   66 1   
    62   59   60 2   
    63   59   69 1   
    64   61   62 1   
    65   61   67 1   
    66   61   68 1   
    67   62   63 1   
    68   62   64 1   
    69   69   70 1   
    70   69   73 1   
    71   70   71 1   
    72   70   74 1   
    73   70   75 1   
    74   71   72 2   
    75   71   76 1   
    76   76   77 1   
    77   76   85 1   
    78   77   78 1   
    79   77   80 1   
    80   77   86 1   
    81   78   79 2   
    82   78   93 1   
    83   80   81 1   
    84   80   87 1   
    85   80   88 1   
    86   81   82 1   
    87   81   89 1   
    88   81   90 1   
    89   82   83 1   
    90   82   84 2   
    91   83   91 1   
    92   83   92 1   
    93   93   94 1   
    94   93  100 1   
    95   94   95 1   
    96   94   97 1   
    97   94  101 1   
    98   95   96 2   
    99   95  109 1   
   100   97   98 1   
   101   97   99 1   
   102   97  102 1   
   103   98  103 1   
   104   98  104 1   
   105   98  105 1   
   106   99  106 1   
   107   99  107 1   
   108   99  108 1   
   109  109  110 1   
   110  109  117 1   
   111  110  111 1   
   112  110  113 1   
   113  110  118 1   
   114  111  112 2   
   115  111  123 1   
   116  113  114 1   
   117  113  119 1   
   118  113  120 1   
   119  114  115 1   
   120  114  116 2   
   121  115  121 1   
   122  115  122 1   
   123  123  124 1   
   124  123  135 1   
   125  124  125 1   
   126  124  127 1   
   127  124  136 1   
   128  125  126 2   
   129  125  144 1   
   130  127  128 1   
   131  127  137 1   
   132  127  138 1   
   133  128  129 ar  
   134  128  130 ar  
   135  129  131 ar  
   136  129  139 1   
   137  130  132 ar  
   138  130  140 1   
   139  131  133 ar  
   140  131  141 1   
   141  132  133 ar  
   142  132  142 1   
   143  133  134 1   
   144  134  143 1   
   145  144  145 1   
   146  144  153 1   
   147  145  146 1   
   148  145  148 1   
   149  145  154 1   
   150  146  147 2   
   151  146  159 1   
   152  148  149 1   
   153  148  155 1   
   154  148  156 1   
   155  149  150 1   
   156  149  157 1   
   157  149  158 1   
   158  150  151 1   
   159  150  152 1   
   160  159  160 1   
   161  159  168 1   
   162  160  161 1   
   163  160  163 1   
   164  160  169 1   
   165  161  162 2   
   166  161  174 1   
   167  163  164 1   
   168  163  170 1   
   169  163  171 1   
   170  164  165 1   
   171  164  172 1   
   172  164  173 1   
   173  165  166 1   
   174  165  167 1   
   175  174  175 1   
   176  174  179 1   
   177  175  176 1   
   178  175  177 1   
   179  175  178 1   
   180  181  182 1   
   181  181  183 1   
   182  184  185 1   
   183  184  186 1   
   184  187  188 1   
   185  187  189 1   
   186  190  191 1   
   187  190  192 1   
@<TRIPOS>SUBSTRUCTURE
     1 MOL         1 TEMP              0 ****  ****    0 ROOT
