@<TRIPOS>MOLECULE
MOL
  192   187     1     0     0
SMALL
resp


@<TRIPOS>ATOM
      1 C1          9.3700    1.9950    0.4090 c3        1 MOL     -0.584266
      2 C2          8.2320    1.0050   -0.0100 c         1 MOL      0.816401
      3 O1          7.1410    1.0190    0.6040 o         1 MOL     -0.713818
      4 H1          9.0690    3.0150    0.1710 hc        1 MOL      0.153942
      5 H2          9.5490    1.9110    1.4820 hc        1 MOL      0.153942
      6 H3         10.2830    1.7500   -0.1330 hc        1 MOL      0.153942
      7 N1          8.3980    0.0930   -0.9780 n         1 MOL     -0.596695
      8 C3          7.2310   -0.4110   -1.6860 c3        1 MOL      0.040149
      9 C4          6.8710   -1.7550   -1.2360 c         1 MOL      0.597346
     10 O2          6.6400   -2.6910   -1.9740 o         1 MOL     -0.466413
     11 C5          7.5870   -0.2840   -3.2080 c3        1 MOL     -0.147330
     12 C6          9.0150   -0.7520   -3.6920 c         1 MOL      0.694687
     13 O3          9.7110   -1.4990   -3.0020 o         1 MOL     -0.644576
     14 O4          9.3150   -0.5180   -4.8950 o         1 MOL     -0.644576
     15 H4          9.3130   -0.0550   -1.3620 hn        1 MOL      0.275221
     16 H5          6.2790    0.1050   -1.5650 h1        1 MOL      0.095123
     17 H6          7.5300    0.7710   -3.4840 hc        1 MOL      0.044485
     18 H7          6.8260   -0.8390   -3.7490 hc        1 MOL      0.044485
     19 N2          6.8020   -2.0250    0.0520 n         1 MOL     -0.577775
     20 C7          6.4080   -3.2990    0.7080 c3        1 MOL      0.150764
     21 C8          4.9500   -3.6720    0.4700 c         1 MOL      0.423641
     22 O5          4.6720   -4.7920    0.0340 o         1 MOL     -0.515179
     23 C9          6.9230   -3.3990    2.1720 c3        1 MOL     -0.016633
     24 C10         8.4910   -3.5550    2.0820 c3        1 MOL      0.044358
     25 C11         8.8670   -3.6590    3.5860 c3        1 MOL     -0.213477
     26 C12        10.3840   -3.7160    3.5830 c3        1 MOL      0.007925
     27 N3         11.0210   -3.6720    4.9340 n4        1 MOL     -0.132645
     28 H8          6.7580   -1.2380    0.6810 hn        1 MOL      0.309771
     29 H9          6.9290   -4.0840    0.1680 h1        1 MOL      0.074902
     30 H10         6.5330   -4.3040    2.6440 hc        1 MOL      0.007316
     31 H11         6.6570   -2.5540    2.8150 hc        1 MOL      0.007316
     32 H12         8.8660   -2.5740    1.7930 hc        1 MOL      0.049142
     33 H13         8.7720   -4.4470    1.5160 hc        1 MOL      0.049142
     34 H14         8.5260   -4.6330    3.9450 hc        1 MOL      0.091932
     35 H15         8.6020   -2.7560    4.1370 hc        1 MOL      0.091932
     36 H16        10.6210   -2.8440    2.9690 hx        1 MOL      0.076337
     37 H17        10.6450   -4.6540    3.1020 hx        1 MOL      0.076337
     38 H18        10.9350   -2.7330    5.2950 hn        1 MOL      0.223730
     39 H19        10.5150   -4.2590    5.5830 hn        1 MOL      0.223730
     40 H20        12.0150   -3.8910    4.9380 hn        1 MOL      0.223730
     41 N4          3.8940   -2.8180    0.5590 n         1 MOL     -0.409465
     42 C13         3.8040   -1.3770    1.0180 c3        1 MOL      0.071852
     43 C14         3.8150   -0.2470   -0.0950 c         1 MOL      0.273625
     44 O6          3.7290   -0.6500   -1.3510 o         1 MOL     -0.456049
     45 C15         2.6530   -1.1650    1.9860 c3        1 MOL     -0.170512
     46 C16         1.3160   -1.6440    1.6050 c         1 MOL      0.654847
     47 O7          0.6560   -0.9550    0.7280 o         1 MOL     -0.656090
     48 O8          0.7790   -2.6110    2.2770 o         1 MOL     -0.656090
     49 H21         3.0340   -3.2340    0.2290 hn        1 MOL      0.345438
     50 H22         4.6410   -1.1870    1.6850 h1        1 MOL      0.088867
     51 H23         2.6400   -0.1140    2.2800 hc        1 MOL      0.013419
     52 H24         2.8470   -1.7220    2.9090 hc        1 MOL      0.013419
     53 N5          4.0810    0.9820    0.2130 n         1 MOL     -0.245912
     54 C17         4.1630    2.1130   -0.6920 c3        1 MOL     -0.255257
     55 C18         2.7540    2.6790   -0.9920 c         1 MOL      0.653534
     56 O9          1.6910    2.0920   -0.7750 o         1 MOL     -0.662641
     57 H25         4.2750    1.2410    1.1660 hn        1 MOL      0.308612
     58 H26         4.4510    1.7610   -1.6860 h1        1 MOL      0.168691
     59 H27         4.8410    2.8770   -0.3170 h1        1 MOL      0.168691
     60 N6          2.8080    3.9320   -1.4470 n         1 MOL     -0.732940
     61 C19         1.6490    4.7780   -1.9630 c3        1 MOL      0.530137
     62 C20         2.1760    6.2350   -1.9050 c         1 MOL      0.362275
     63 O10         3.4070    6.4970   -1.7960 o         1 MOL     -0.522078
     64 C21         1.2070    4.3250   -3.3700 c3        1 MOL     -0.223093
     65 C22         0.8960    2.8480   -3.4630 c         1 MOL      0.752577
     66 O11        -0.2100    2.4820   -3.0600 o         1 MOL     -0.695922
     67 O12         1.6490    2.1480   -4.2480 o         1 MOL     -0.695922
     68 H28         3.7490    4.2520   -1.6170 hn        1 MOL      0.341286
     69 H29         0.7460    4.7000   -1.3510 h1        1 MOL     -0.024380
     70 H30         2.0130    4.4970   -4.0860 hc        1 MOL      0.032734
     71 H31         0.3600    4.9240   -3.7040 hc        1 MOL      0.032734
     72 N7          1.3540    7.2900   -1.9730 n         1 MOL     -0.430692
     73 C23        -0.1520    7.3060   -2.1570 c3        1 MOL     -0.072519
     74 C24        -0.8550    6.7530   -0.9030 c         1 MOL      0.552731
     75 O13        -0.4050    7.0210    0.2390 o         1 MOL     -0.511657
     76 H32         1.8670    8.1330   -1.7420 hn        1 MOL      0.329482
     77 H33        -0.5070    6.8390   -3.0630 h1        1 MOL      0.079955
     78 H34        -0.5350    8.3280   -2.2130 h1        1 MOL      0.079955
     79 N8         -1.9190    5.9850   -1.1020 n         1 MOL     -0.501552
     80 C25        -2.6240    5.2050   -0.0540 c3        1 MOL      0.026480
     81 C26        -1.8010    3.9960    0.4720 c         1 MOL      0.388643
     82 O14        -1.3250    3.1340   -0.3400 o         1 MOL     -0.604964
     83 C27        -3.9750    4.6620   -0.5600 c3        1 MOL      0.463806
     84 C28        -5.0070    5.6750   -0.8640 c3        1 MOL     -0.418626
     85 O15        -4.5730    4.0400    0.4260 oh        1 MOL     -0.624912
     86 H35        -2.2030    5.8340   -2.0540 hn        1 MOL      0.300529
     87 H36        -2.7710    5.8790    0.7850 h1        1 MOL      0.094720
     88 H37        -3.8030    3.9610   -1.3770 h1        1 MOL     -0.004321
     89 H38        -5.1200    3.4210   -0.0580 ho        1 MOL      0.391816
     90 H39        -4.6720    6.2600   -1.7190 hc        1 MOL      0.098194
     91 H40        -5.9900    5.2150   -0.9810 hc        1 MOL      0.098194
     92 H41        -4.9260    6.3950   -0.0520 hc        1 MOL      0.098194
     93 N9         -1.6830    3.9750    1.7930 n         1 MOL     -0.387017
     94 C29        -1.2050    2.8700    2.6700 c3        1 MOL     -0.079415
     95 C30        -1.8590    1.4850    2.3820 c         1 MOL      0.753001
     96 O16        -1.7540    0.8340    1.3570 o         1 MOL     -0.588408
     97 C31         0.3240    2.7800    2.4020 c3        1 MOL      0.234987
     98 C32         1.1960    4.0590    2.4020 c3        1 MOL      0.012527
     99 C33         0.8350    1.7810    3.4480 c3        1 MOL     -0.214602
    100 C34         0.9410    4.9940    3.6150 c3        1 MOL     -0.386321
    101 H42        -2.1560    4.7140    2.2850 hn        1 MOL      0.290948
    102 H43        -1.3590    3.1610    3.7040 h1        1 MOL      0.077013
    103 H44         0.4860    2.3360    1.4180 hc        1 MOL     -0.033264
    104 H45         0.8770    4.5810    1.4980 hc        1 MOL      0.052908
    105 H46         2.2510    3.8170    2.3740 hc        1 MOL      0.052908
    106 H47         0.3920    0.8000    3.2730 hc        1 MOL      0.055143
    107 H48         1.8970    1.6790    3.2190 hc        1 MOL      0.055143
    108 H49         0.8510    2.0610    4.4990 hc        1 MOL      0.055143
    109 H50         1.5640    5.8440    3.3730 hc        1 MOL      0.095247
    110 H51        -0.1150    5.2790    3.6330 hc        1 MOL      0.095247
    111 H52         1.2830    4.5600    4.5420 hc        1 MOL      0.095247
    112 N10        -2.4140    1.0430    3.5220 n         1 MOL     -0.755791
    113 C35        -2.6700   -0.4170    3.8430 c3        1 MOL     -0.097869
    114 C36        -4.0630   -0.8590    3.4280 c         1 MOL      0.629534
    115 O17        -4.4120   -2.0070    3.7030 o         1 MOL     -0.550706
    116 C37        -2.5060   -0.6420    5.3630 c3        1 MOL      0.540989
    117 C38        -3.6100   -0.0770    6.3270 c3        1 MOL     -0.329266
    118 O18        -1.3010   -0.1120    5.8270 oh        1 MOL     -0.609872
    119 H53        -2.6260    1.7640    4.2000 hn        1 MOL      0.367598
    120 H54        -1.9690   -1.0130    3.2690 h1        1 MOL      0.112860
    121 H55        -2.6320   -1.7100    5.5350 h1        1 MOL     -0.025438
    122 H56        -0.6900   -0.8450    5.6900 ho        1 MOL      0.382353
    123 H57        -3.4450    0.9620    6.5700 hc        1 MOL      0.080381
    124 H58        -4.5900    0.0100    5.8580 hc        1 MOL      0.080381
    125 H59        -3.4540   -0.6820    7.2260 hc        1 MOL      0.080381
    126 N11        -4.9630   -0.1480    2.6150 n         1 MOL     -0.332179
    127 C39        -6.1940   -0.7190    2.0710 c3        1 MOL     -0.309867
    128 C40        -5.9980   -1.1200    0.6270 c         1 MOL      0.678758
    129 O19        -5.2620   -0.5300   -0.1420 o         1 MOL     -0.495016
    130 C41        -7.4120    0.1380    2.4250 c3        1 MOL      0.509909
    131 C42        -7.7260    0.1530    3.9620 c3        1 MOL     -0.238079
    132 O20        -7.3790    1.4750    2.0430 oh        1 MOL     -0.596976
    133 H60        -4.6500    0.7310    2.2220 hn        1 MOL      0.223814
    134 H61        -6.4070   -1.6820    2.5330 h1        1 MOL      0.149652
    135 H62        -8.3070   -0.2560    1.9430 h1        1 MOL     -0.051631
    136 H63        -6.9880    1.9030    2.8040 ho        1 MOL      0.365155
    137 H64        -8.0120   -0.8760    4.2120 hc        1 MOL      0.049896
    138 H65        -6.7840    0.3290    4.4700 hc        1 MOL      0.049896
    139 H66        -8.4890    0.8970    4.1910 hc        1 MOL      0.049896
    140 N12        -6.6140   -2.2390    0.2320 n         1 MOL     -0.496722
    141 C43        -6.6420   -2.8100   -1.1320 c3        1 MOL      0.059100
    142 C44        -5.2550   -2.8430   -1.7390 c         1 MOL      0.590690
    143 O21        -4.9220   -2.2320   -2.7470 o         1 MOL     -0.527408
    144 C45        -7.7430   -2.3500   -2.0700 c3        1 MOL     -0.348694
    145 C46        -9.1410   -2.2140   -1.3430 c3        1 MOL      0.095019
    146 C47       -10.3240   -1.9400   -2.1970 c3        1 MOL      0.065918
    147 C48       -11.4680   -1.5820   -1.2340 c3        1 MOL     -0.013509
    148 N13       -12.6050   -0.9930   -1.9040 n4        1 MOL      0.014466
    149 H67        -7.1970   -2.7040    0.9220 hn        1 MOL      0.249449
    150 H68        -6.8650   -3.8590   -0.9440 h1        1 MOL      0.070090
    151 H69        -7.8080   -2.9520   -2.9740 hc        1 MOL      0.124317
    152 H70        -7.4530   -1.3620   -2.4410 hc        1 MOL      0.124317
    153 H71        -8.9460   -1.4340   -0.6060 hc        1 MOL      0.014584
    154 H72        -9.3990   -3.1320   -0.8160 hc        1 MOL      0.014584
    155 H73       -10.6150   -2.7560   -2.8570 hc        1 MOL      0.013527
    156 H74       -10.0750   -1.0230   -2.7280 hc        1 MOL      0.013527
    157 H75       -11.1890   -0.8000   -0.5380 hx        1 MOL      0.047443
    158 H76       -11.7550   -2.4900   -0.7180 hx        1 MOL      0.047443
    159 H77       -13.2890   -0.7570   -1.1980 hn        1 MOL      0.141435
    160 H78       -12.4330   -0.2420   -2.5630 hn        1 MOL      0.141435
    161 H79       -13.1050   -1.6540   -2.4820 hn        1 MOL      0.141435
    162 N14        -4.4000   -3.7770   -1.2580 n         1 MOL     -0.535933
    163 C49        -2.9770   -3.8980   -1.7000 c3        1 MOL      0.296570
    164 C50        -1.9580   -3.1680   -0.7960 c         1 MOL      0.471755
    165 O22        -1.4150   -2.2060   -1.2330 o         1 MOL     -0.651108
    166 C51        -2.6690   -5.3980   -1.9900 c3        1 MOL     -0.098178
    167 C52        -3.4530   -5.8840   -3.2140 c3        1 MOL     -0.256470
    168 C53        -3.2470   -7.3770   -3.3520 c         1 MOL      0.719266
    169 O23        -2.4190   -7.8560   -4.1420 o         1 MOL     -0.624800
    170 O24        -3.8770   -8.1550   -2.6210 o         1 MOL     -0.624800
    171 H80        -4.7260   -4.3050   -0.4610 hn        1 MOL      0.279148
    172 H81        -2.9410   -3.4150   -2.6760 h1        1 MOL      0.081727
    173 H82        -2.8790   -5.9260   -1.0570 hc        1 MOL      0.062104
    174 H83        -1.5970   -5.4800   -2.1720 hc        1 MOL      0.062104
    175 H84        -3.0730   -5.4180   -4.1150 hc        1 MOL      0.055715
    176 H85        -4.5310   -5.7310   -3.1090 hc        1 MOL      0.055715
    177 N15        -1.6510   -3.5060    0.4570 n         1 MOL     -0.389530
    178 C54        -2.0330   -4.7010    1.2380 c3        1 MOL     -0.027127
    179 H86        -2.0260   -4.4580    2.3000 h1        1 MOL      0.040826
    180 H87        -3.0340   -5.0220    0.9460 h1        1 MOL      0.040826
    181 H88        -1.3230   -5.5050    1.0450 h1        1 MOL      0.040826
    182 H89        -0.8790   -2.9810    0.8590 hn        1 MOL      0.328550
    183 Ca1        -0.5550    0.5590   -1.0830 Ca        1 MOL      1.821272
    184 O25         1.3190   -0.6600   -2.5630 oh        1 MOL     -0.816602
    185 H90         1.4470   -0.7900   -3.5060 ho        1 MOL      0.389252
    186 H91         2.2090   -0.5860   -2.2090 ho        1 MOL      0.389252
    187 O26        -1.1540    0.0120   -3.7910 oh        1 MOL     -0.816602
    188 H92        -0.9000   -0.8300   -4.1600 ho        1 MOL      0.389252
    189 H93        -0.6240    0.6510   -4.2600 ho        1 MOL      0.389252
    190 O27        -3.1980    0.4810   -1.3110 oh        1 MOL     -0.816602
    191 H94        -3.7600   -0.0570   -0.7470 ho        1 MOL      0.389252
    192 H95        -3.7700    1.1780   -1.6210 ho        1 MOL      0.389252
@<TRIPOS>BOND
     1    1    2 1   
     2    1    4 1   
     3    1    5 1   
     4    1    6 1   
     5    2    3 2   
     6    2    7 1   
     7    7    8 1   
     8    7   15 1   
     9    8    9 1   
    10    8   11 1   
    11    8   16 1   
    12    9   10 2   
    13    9   19 1   
    14   11   12 1   
    15   11   17 1   
    16   11   18 1   
    17   12   13 1   
    18   12   14 1   
    19   19   20 1   
    20   19   28 1   
    21   20   21 1   
    22   20   23 1   
    23   20   29 1   
    24   21   22 2   
    25   21   41 1   
    26   23   24 1   
    27   23   30 1   
    28   23   31 1   
    29   24   25 1   
    30   24   32 1   
    31   24   33 1   
    32   25   26 1   
    33   25   34 1   
    34   25   35 1   
    35   26   27 1   
    36   26   36 1   
    37   26   37 1   
    38   27   38 1   
    39   27   39 1   
    40   27   40 1   
    41   41   42 1   
    42   41   49 1   
    43   42   43 1   
    44   42   45 1   
    45   42   50 1   
    46   43   44 2   
    47   43   53 1   
    48   45   46 1   
    49   45   51 1   
    50   45   52 1   
    51   46   47 1   
    52   46   48 1   
    53   53   54 1   
    54   53   57 1   
    55   54   55 1   
    56   54   58 1   
    57   54   59 1   
    58   55   56 2   
    59   55   60 1   
    60   60   61 1   
    61   60   68 1   
    62   61   62 1   
    63   61   64 1   
    64   61   69 1   
    65   62   63 2   
    66   62   72 1   
    67   64   65 1   
    68   64   70 1   
    69   64   71 1   
    70   65   66 1   
    71   65   67 1   
    72   72   73 1   
    73   72   76 1   
    74   73   74 1   
    75   73   77 1   
    76   73   78 1   
    77   74   75 2   
    78   74   79 1   
    79   79   80 1   
    80   79   86 1   
    81   80   81 1   
    82   80   83 1   
    83   80   87 1   
    84   81   82 2   
    85   81   93 1   
    86   83   84 1   
    87   83   85 1   
    88   83   88 1   
    89   84   90 1   
    90   84   91 1   
    91   84   92 1   
    92   85   89 1   
    93   93   94 1   
    94   93  101 1   
    95   94   95 1   
    96   94   97 1   
    97   94  102 1   
    98   95   96 2   
    99   95  112 1   
   100   97   98 1   
   101   97   99 1   
   102   97  103 1   
   103   98  100 1   
   104   98  104 1   
   105   98  105 1   
   106   99  106 1   
   107   99  107 1   
   108   99  108 1   
   109  100  109 1   
   110  100  110 1   
   111  100  111 1   
   112  112  113 1   
   113  112  119 1   
   114  113  114 1   
   115  113  116 1   
   116  113  120 1   
   117  114  115 2   
   118  114  126 1   
   119  116  117 1   
   120  116  118 1   
   121  116  121 1   
   122  117  123 1   
   123  117  124 1   
   124  117  125 1   
   125  118  122 1   
   126  126  127 1   
   127  126  133 1   
   128  127  128 1   
   129  127  130 1   
   130  127  134 1   
   131  128  129 2   
   132  128  140 1   
   133  130  131 1   
   134  130  132 1   
   135  130  135 1   
   136  131  137 1   
   137  131  138 1   
   138  131  139 1   
   139  132  136 1   
   140  140  141 1   
   141  140  149 1   
   142  141  142 1   
   143  141  144 1   
   144  141  150 1   
   145  142  143 2   
   146  142  162 1   
   147  144  145 1   
   148  144  151 1   
   149  144  152 1   
   150  145  146 1   
   151  145  153 1   
   152  145  154 1   
   153  146  147 1   
   154  146  155 1   
   155  146  156 1   
   156  147  148 1   
   157  147  157 1   
   158  147  158 1   
   159  148  159 1   
   160  148  160 1   
   161  148  161 1   
   162  162  163 1   
   163  162  171 1   
   164  163  164 1   
   165  163  166 1   
   166  163  172 1   
   167  164  165 2   
   168  164  177 1   
   169  166  167 1   
   170  166  173 1   
   171  166  174 1   
   172  167  168 1   
   173  167  175 1   
   174  167  176 1   
   175  168  169 1   
   176  168  170 1   
   177  177  178 1   
   178  177  182 1   
   179  178  179 1   
   180  178  180 1   
   181  178  181 1   
   182  184  185 1   
   183  184  186 1   
   184  187  188 1   
   185  187  189 1   
   186  190  191 1   
   187  190  192 1   
@<TRIPOS>SUBSTRUCTURE
     1 MOL         1 TEMP              0 ****  ****    0 ROOT
