@<TRIPOS>MOLECULE
MOL
  181   177     1     0     0
SMALL
resp


@<TRIPOS>ATOM
      1 C1          2.4950   -3.0080    3.9410 c3        1 MOL     -0.354006
      2 C2          3.8080   -2.2650    3.7010 c         1 MOL      0.722375
      3 O1          3.8320   -1.0860    3.3780 o         1 MOL     -0.578728
      4 H1          2.2230   -2.9330    4.9940 hc        1 MOL      0.084453
      5 H2          1.7090   -2.5640    3.3300 hc        1 MOL      0.084453
      6 H3          2.6160   -4.0570    3.6710 hc        1 MOL      0.084453
      7 N1          4.9050   -3.0110    3.7380 n         1 MOL     -0.634591
      8 C3          6.2030   -2.5110    3.2270 c3        1 MOL      0.239540
      9 C4          6.2700   -2.3370    1.7010 c         1 MOL      0.569850
     10 O2          5.8460   -3.2060    0.9410 o         1 MOL     -0.546106
     11 C5          7.2760   -3.4480    3.8560 c3        1 MOL     -0.143119
     12 C6          8.7230   -3.1240    3.5990 c         1 MOL      0.701749
     13 O3          9.5700   -4.0480    3.7020 o         1 MOL     -0.725438
     14 O4          8.9780   -1.9460    3.3060 o         1 MOL     -0.725438
     15 H4          4.7920   -4.0090    3.9120 hn        1 MOL      0.303832
     16 H5          6.2620   -1.4820    3.5980 h1        1 MOL      0.007679
     17 H6          7.0820   -4.4610    3.5090 hc        1 MOL      0.005082
     18 H7          7.1030   -3.4740    4.9260 hc        1 MOL      0.005082
     19 N2          6.8900   -1.2440    1.2230 n         1 MOL     -0.572758
     20 C7          6.8490   -0.8860   -0.1830 c3        1 MOL      0.508677
     21 C8          5.4870   -0.3550   -0.7120 c         1 MOL      0.392229
     22 O5          4.6860    0.0690    0.0750 o         1 MOL     -0.523259
     23 C9          7.9800    0.1320   -0.3950 c3        1 MOL     -0.499057
     24 H8          7.4250   -0.6930    1.8800 hn        1 MOL      0.297994
     25 H9          7.0060   -1.8010   -0.7640 h1        1 MOL     -0.053619
     26 H10         8.8190   -0.5300   -0.1770 hc        1 MOL      0.127384
     27 H11         7.9030    0.6500   -1.3490 hc        1 MOL      0.127384
     28 H12         7.9480    0.9230    0.3590 hc        1 MOL      0.127384
     29 N3          5.3520   -0.3550   -1.9850 n         1 MOL     -0.449582
     30 C10         4.3860    0.5620   -2.6480 c3        1 MOL     -0.048941
     31 C11         5.0510    1.8700   -3.0290 c         1 MOL      0.649032
     32 O6          6.0470    1.8150   -3.7520 o         1 MOL     -0.555809
     33 C12         3.6840   -0.0860   -3.8810 c3        1 MOL     -0.225971
     34 C13         3.1610   -1.5440   -3.5510 c         1 MOL      0.889451
     35 O7          2.6610   -1.8550   -2.4930 o         1 MOL     -0.775944
     36 O8          3.2270   -2.3890   -4.5130 o         1 MOL     -0.775944
     37 H13         6.0710   -0.7410   -2.5750 hn        1 MOL      0.290352
     38 H14         3.5960    0.8290   -1.9420 h1        1 MOL      0.138154
     39 H15         4.3050   -0.1670   -4.7780 hc        1 MOL      0.048281
     40 H16         2.8540    0.5460   -4.2110 hc        1 MOL      0.048281
     41 N4          4.4710    2.9950   -2.6290 n         1 MOL     -0.404786
     42 C14         5.0410    4.3340   -2.9380 c3        1 MOL     -0.123816
     43 C15         4.0990    5.5430   -2.8450 c         1 MOL      0.565781
     44 O9          4.3210    6.4780   -3.6410 o         1 MOL     -0.504148
     45 H17         3.6160    3.0250   -2.0960 hn        1 MOL      0.197415
     46 H18         5.6110    4.3490   -3.8740 h1        1 MOL      0.105932
     47 H19         5.7380    4.5720   -2.1320 h1        1 MOL      0.105932
     48 N5          2.9920    5.4590   -2.0970 n         1 MOL     -0.645911
     49 C16         1.8790    6.4460   -2.2320 c3        1 MOL      0.152269
     50 C17         1.1820    6.6490   -0.8850 c         1 MOL      0.452282
     51 O10         0.4880    7.6070   -0.6190 o         1 MOL     -0.487605
     52 C18         0.7860    6.1060   -3.2630 c3        1 MOL     -0.198985
     53 C19         1.1900    5.7990   -4.6830 c         1 MOL      0.757112
     54 N6          1.2700    4.5380   -5.1300 n         1 MOL     -0.857009
     55 O11         1.2420    6.8130   -5.4550 o         1 MOL     -0.576800
     56 H20         2.8160    4.6890   -1.4750 hn        1 MOL      0.385067
     57 H21         2.2650    7.3950   -2.5860 h1        1 MOL      0.095449
     58 H22         0.0090    6.8650   -3.2860 hc        1 MOL      0.057888
     59 H23         0.5100    5.1160   -2.8870 hc        1 MOL      0.057888
     60 H24         1.1250    3.7320   -4.5290 hn        1 MOL      0.388754
     61 H25         1.4810    4.2850   -6.0880 hn        1 MOL      0.388754
     62 N7          1.4350    5.7880    0.1160 n         1 MOL     -0.321598
     63 C20         0.9130    5.8190    1.4970 c3        1 MOL     -0.322420
     64 C21        -0.5900    5.8290    1.7220 c         1 MOL      0.640638
     65 O12        -1.2550    5.5010    0.7560 o         1 MOL     -0.403968
     66 H26         2.0330    4.9920   -0.0100 hn        1 MOL      0.262250
     67 H27         1.3070    6.7590    1.8930 h1        1 MOL      0.141724
     68 H28         1.4180    5.0070    2.0130 h1        1 MOL      0.141724
     69 N8         -1.1350    6.1550    2.9620 n         1 MOL     -0.455713
     70 C22        -2.5630    6.0230    3.2290 c3        1 MOL     -0.394083
     71 C23        -3.0990    4.6200    3.2010 c         1 MOL      0.588621
     72 O13        -4.2890    4.4140    3.0650 o         1 MOL     -0.566140
     73 C24        -3.1130    6.8400    4.3700 c3        1 MOL      0.686118
     74 C25        -2.6470    6.3530    5.6990 c3        1 MOL     -0.455288
     75 O14        -2.7070    8.1600    4.2750 oh        1 MOL     -0.675705
     76 H29        -0.5520    6.3020    3.7800 hn        1 MOL      0.263461
     77 H30        -3.1160    6.4140    2.3710 h1        1 MOL      0.150057
     78 H31        -4.1970    6.8320    4.2620 h1        1 MOL     -0.012425
     79 H32        -1.7840    8.2140    4.0140 ho        1 MOL      0.388373
     80 H33        -3.1290    7.0740    6.3590 hc        1 MOL      0.096879
     81 H34        -3.0030    5.3300    5.8060 hc        1 MOL      0.096879
     82 H35        -1.5590    6.4740    5.7980 hc        1 MOL      0.096879
     83 N9         -2.2290    3.6500    3.3620 n         1 MOL     -0.280336
     84 C26        -2.5630    2.2190    3.2920 c3        1 MOL      0.115269
     85 C27        -1.8870    1.4970    2.0890 c         1 MOL      0.361662
     86 O15        -1.0230    2.0380    1.4150 o         1 MOL     -0.497905
     87 C28        -2.3410    1.5720    4.6730 c3        1 MOL     -0.022234
     88 C29        -2.9750    2.2000    5.9290 c3        1 MOL      0.076602
     89 C30        -2.6680    0.0920    4.6800 c3        1 MOL     -0.017800
     90 C31        -4.4850    2.1010    6.0770 c3        1 MOL     -0.081647
     91 H36        -1.2570    3.8760    3.4710 hn        1 MOL      0.212153
     92 H37        -3.6180    2.1060    3.0250 h1        1 MOL      0.067502
     93 H38        -1.2900    1.6800    4.9520 hc        1 MOL      0.012470
     94 H39        -2.7110    3.2580    5.9370 hc        1 MOL     -0.009898
     95 H40        -2.5450    1.9130    6.8880 hc        1 MOL     -0.009898
     96 H41        -1.9260   -0.4670    4.1140 hc        1 MOL     -0.004662
     97 H42        -2.6680   -0.3060    5.6910 hc        1 MOL     -0.004662
     98 H43        -3.6260   -0.1070    4.2020 hc        1 MOL     -0.004662
     99 H44        -4.7720    2.7570    6.8980 hc        1 MOL      0.008341
    100 H45        -4.9770    2.4690    5.1720 hc        1 MOL      0.008341
    101 H46        -4.8720    1.1380    6.3790 hc        1 MOL      0.008341
    102 N10        -2.3460    0.2810    1.7640 n         1 MOL     -0.149417
    103 C32        -1.8160   -0.5980    0.6790 c3        1 MOL      0.132314
    104 C33        -2.9820   -1.0070   -0.3050 c         1 MOL      0.404344
    105 O16        -2.9300   -2.0740   -0.8960 o         1 MOL     -0.390201
    106 C34        -1.0330   -1.7460    1.2950 c3        1 MOL     -0.118114
    107 C35        -0.0390   -2.4490    0.3580 c         1 MOL      0.676545
    108 O17         0.2970   -1.9280   -0.7650 o         1 MOL     -0.670146
    109 O18         0.4180   -3.5130    0.7160 o         1 MOL     -0.670146
    110 H47        -3.2190   -0.0270    2.1750 hn        1 MOL      0.163438
    111 H48        -1.1330    0.0610    0.1500 h1        1 MOL      0.034469
    112 H49        -1.7220   -2.5240    1.6270 hc        1 MOL      0.009611
    113 H50        -0.4860   -1.3910    2.1690 hc        1 MOL      0.009611
    114 N11        -4.0720   -0.2200   -0.4570 n         1 MOL     -0.433638
    115 C36        -5.1330   -0.4460   -1.4660 c3        1 MOL      0.277495
    116 C37        -5.9390   -1.7260   -1.1350 c         1 MOL      0.287172
    117 O19        -6.1450   -2.1050    0.0080 o         1 MOL     -0.471513
    118 C38        -6.0110    0.8210   -1.6230 c3        1 MOL     -0.237561
    119 C39        -5.2940    2.0910   -2.1230 ca        1 MOL      0.039324
    120 C40        -5.4340    2.4210   -3.4730 ca        1 MOL     -0.106836
    121 C41        -4.5350    2.8410   -1.1940 ca        1 MOL     -0.106836
    122 C42        -4.8760    3.5980   -3.9730 ca        1 MOL     -0.086648
    123 C43        -3.9620    4.0300   -1.7020 ca        1 MOL     -0.086648
    124 C44        -4.2520    4.4450   -3.0040 ca        1 MOL     -0.161749
    125 H51        -4.1390    0.5420    0.2060 hn        1 MOL      0.215187
    126 H52        -4.6100   -0.6330   -2.4000 h1        1 MOL      0.020852
    127 H53        -6.4690    0.9320   -0.6470 hc        1 MOL      0.079318
    128 H54        -6.8640    0.5650   -2.2510 hc        1 MOL      0.079318
    129 H55        -6.0840    1.8700   -4.1460 ha        1 MOL      0.084641
    130 H56        -4.4060    2.4900   -0.1770 ha        1 MOL      0.084641
    131 H57        -4.9460    3.9170   -5.0030 ha        1 MOL      0.103118
    132 H58        -3.3940    4.6310   -1.0080 ha        1 MOL      0.103118
    133 H59        -4.0100    5.4400   -3.3330 ha        1 MOL      0.117433
    134 N12        -6.3680   -2.4350   -2.2090 n         1 MOL     -0.105389
    135 C45        -6.9880   -3.7560   -2.0870 c3        1 MOL      0.071697
    136 C46        -6.3030   -4.7950   -1.1410 c         1 MOL      0.218868
    137 O20        -6.9450   -5.7010   -0.5800 o         1 MOL     -0.494252
    138 C47        -6.9070   -4.2520   -3.4960 c3        1 MOL      0.043399
    139 C48        -7.2230   -3.0880   -4.4020 c3        1 MOL     -0.228716
    140 C49        -6.5230   -1.9230   -3.6090 c3        1 MOL     -0.002472
    141 H60        -7.9700   -3.6230   -1.6270 h1        1 MOL      0.066940
    142 H61        -6.0190   -4.8050   -3.8080 hc        1 MOL      0.037402
    143 H62        -7.7780   -4.8620   -3.7190 hc        1 MOL      0.037402
    144 H63        -6.6930   -3.2190   -5.3440 hc        1 MOL      0.077466
    145 H64        -8.2950   -2.9090   -4.5520 hc        1 MOL      0.077466
    146 H65        -5.6000   -1.6710   -4.1140 h1        1 MOL      0.055472
    147 H66        -7.0670   -0.9880   -3.6800 h1        1 MOL      0.055472
    148 N13        -5.0020   -4.7990   -0.9940 n         1 MOL     -0.126905
    149 C50        -4.2990   -5.7140   -0.0660 c3        1 MOL     -0.155088
    150 C51        -4.8730   -5.6410    1.3580 c         1 MOL      0.474024
    151 O21        -4.8850   -6.6760    2.0700 o         1 MOL     -0.557329
    152 C52        -2.7930   -5.4880   -0.0790 c3        1 MOL      0.142726
    153 C53        -2.0670   -5.9890   -1.3080 c3        1 MOL      0.078472
    154 C54        -0.5860   -5.4640   -1.4300 c         1 MOL      0.454984
    155 O22        -0.3540   -4.5640   -2.2610 o         1 MOL     -0.672046
    156 O23         0.3430   -5.9480   -0.7490 o         1 MOL     -0.672046
    157 H67        -4.4680   -3.9900   -1.2620 hn        1 MOL      0.156442
    158 H68        -4.4880   -6.7620   -0.2910 h1        1 MOL      0.105159
    159 H69        -2.3190   -6.0000    0.7570 hc        1 MOL     -0.012820
    160 H70        -2.5430   -4.4220   -0.0340 hc        1 MOL     -0.012820
    161 H71        -2.6250   -5.6810   -2.1910 hc        1 MOL     -0.038112
    162 H72        -2.1050   -7.0710   -1.1930 hc        1 MOL     -0.038112
    163 N14        -5.1310   -4.4380    1.8750 n         1 MOL     -0.142915
    164 C55        -5.3710   -4.3420    3.3050 c3        1 MOL     -0.339218
    165 H73        -5.8760   -5.2440    3.6500 h1        1 MOL      0.120178
    166 H74        -4.4190   -4.2350    3.8260 h1        1 MOL      0.120178
    167 H75        -5.9970   -3.4740    3.5110 h1        1 MOL      0.120178
    168 H76        -5.1100   -3.6560    1.2320 hn        1 MOL      0.212652
    169 Ca1         2.0340   -4.0030   -1.1290 Ca        1 MOL      1.782979
    170 O24         3.2760   -2.2440    0.4850 oh        1 MOL     -0.866274
    171 H77         3.2320   -1.3020    0.3170 ho        1 MOL      0.407717
    172 H78         4.0950   -2.3560    0.9680 ho        1 MOL      0.407717
    173 O25         3.0900   -5.4780    1.0030 oh        1 MOL     -0.866274
    174 H79         3.8540   -5.1780    1.4910 ho        1 MOL      0.407717
    175 H80         2.6060   -6.0150    1.6330 ho        1 MOL      0.407717
    176 O26         4.8590   -4.3000   -1.3540 oh        1 MOL     -0.866274
    177 H81         5.6180   -4.7060   -1.7860 ho        1 MOL      0.407717
    178 H82         5.2470   -3.7400   -0.6780 ho        1 MOL      0.407717
    179 O27         2.8610   -4.8420   -3.4810 oh        1 MOL     -0.866274
    180 H83         2.9220   -3.9840   -3.8960 ho        1 MOL      0.407717
    181 H84         3.4760   -5.3890   -3.9820 ho        1 MOL      0.407717
@<TRIPOS>BOND
     1    1    2 1   
     2    1    4 1   
     3    1    5 1   
     4    1    6 1   
     5    2    3 2   
     6    2    7 1   
     7    7    8 1   
     8    7   15 1   
     9    8    9 1   
    10    8   11 1   
    11    8   16 1   
    12    9   10 2   
    13    9   19 1   
    14   11   12 1   
    15   11   17 1   
    16   11   18 1   
    17   12   13 1   
    18   12   14 1   
    19   19   20 1   
    20   19   24 1   
    21   20   21 1   
    22   20   23 1   
    23   20   25 1   
    24   21   22 2   
    25   21   29 1   
    26   23   26 1   
    27   23   27 1   
    28   23   28 1   
    29   29   30 1   
    30   29   37 1   
    31   30   31 1   
    32   30   33 1   
    33   30   38 1   
    34   31   32 2   
    35   31   41 1   
    36   33   34 1   
    37   33   39 1   
    38   33   40 1   
    39   34   35 1   
    40   34   36 1   
    41   41   42 1   
    42   41   45 1   
    43   42   43 1   
    44   42   46 1   
    45   42   47 1   
    46   43   44 2   
    47   43   48 1   
    48   48   49 1   
    49   48   56 1   
    50   49   50 1   
    51   49   52 1   
    52   49   57 1   
    53   50   51 2   
    54   50   62 1   
    55   52   53 1   
    56   52   58 1   
    57   52   59 1   
    58   53   54 1   
    59   53   55 2   
    60   54   60 1   
    61   54   61 1   
    62   62   63 1   
    63   62   66 1   
    64   63   64 1   
    65   63   67 1   
    66   63   68 1   
    67   64   65 2   
    68   64   69 1   
    69   69   70 1   
    70   69   76 1   
    71   70   71 1   
    72   70   73 1   
    73   70   77 1   
    74   71   72 2   
    75   71   83 1   
    76   73   74 1   
    77   73   75 1   
    78   73   78 1   
    79   74   80 1   
    80   74   81 1   
    81   74   82 1   
    82   75   79 1   
    83   83   84 1   
    84   83   91 1   
    85   84   85 1   
    86   84   87 1   
    87   84   92 1   
    88   85   86 2   
    89   85  102 1   
    90   87   88 1   
    91   87   89 1   
    92   87   93 1   
    93   88   90 1   
    94   88   94 1   
    95   88   95 1   
    96   89   96 1   
    97   89   97 1   
    98   89   98 1   
    99   90   99 1   
   100   90  100 1   
   101   90  101 1   
   102  102  103 1   
   103  102  110 1   
   104  103  104 1   
   105  103  106 1   
   106  103  111 1   
   107  104  105 2   
   108  104  114 1   
   109  106  107 1   
   110  106  112 1   
   111  106  113 1   
   112  107  108 1   
   113  107  109 1   
   114  114  115 1   
   115  114  125 1   
   116  115  116 1   
   117  115  118 1   
   118  115  126 1   
   119  116  117 2   
   120  116  134 1   
   121  118  119 1   
   122  118  127 1   
   123  118  128 1   
   124  119  120 ar  
   125  119  121 ar  
   126  120  122 ar  
   127  120  129 1   
   128  121  123 ar  
   129  121  130 1   
   130  122  124 ar  
   131  122  131 1   
   132  123  124 ar  
   133  123  132 1   
   134  124  133 1   
   135  134  135 1   
   136  134  140 1   
   137  135  136 1   
   138  135  138 1   
   139  135  141 1   
   140  136  137 2   
   141  136  148 1   
   142  138  139 1   
   143  138  142 1   
   144  138  143 1   
   145  139  140 1   
   146  139  144 1   
   147  139  145 1   
   148  140  146 1   
   149  140  147 1   
   150  148  149 1   
   151  148  157 1   
   152  149  150 1   
   153  149  152 1   
   154  149  158 1   
   155  150  151 2   
   156  150  163 1   
   157  152  153 1   
   158  152  159 1   
   159  152  160 1   
   160  153  154 1   
   161  153  161 1   
   162  153  162 1   
   163  154  155 1   
   164  154  156 1   
   165  163  164 1   
   166  163  168 1   
   167  164  165 1   
   168  164  166 1   
   169  164  167 1   
   170  170  171 1   
   171  170  172 1   
   172  173  174 1   
   173  173  175 1   
   174  176  177 1   
   175  176  178 1   
   176  179  180 1   
   177  179  181 1   
@<TRIPOS>SUBSTRUCTURE
     1 MOL         1 TEMP              0 ****  ****    0 ROOT
