@<TRIPOS>MOLECULE
MOL
  178   175     1     0     0
SMALL
resp


@<TRIPOS>ATOM
      1 C1         -6.1140    7.9140    2.3840 c3        1 MOL     -0.373120
      2 C2         -6.8390    7.3060    1.2690 c         1 MOL      0.770519
      3 O1         -6.6860    7.8420    0.1750 o         1 MOL     -0.624905
      4 H1         -6.7400    7.8970    3.2760 hc        1 MOL      0.085452
      5 H2         -5.1990    7.3530    2.5730 hc        1 MOL      0.085452
      6 H3         -5.8640    8.9460    2.1360 hc        1 MOL      0.085452
      7 N1         -7.5770    6.2300    1.3790 n         1 MOL     -0.700501
      8 C3         -8.1620    5.5240    0.2450 c3        1 MOL      0.601844
      9 C4         -7.3400    4.5730   -0.5730 c         1 MOL      0.336491
     10 O2         -7.8500    4.0300   -1.5620 o         1 MOL     -0.464458
     11 C5         -9.3670    4.7520    0.8270 c3        1 MOL     -0.205020
     12 C6        -10.5200    4.2860   -0.1400 c         1 MOL      0.647296
     13 O3        -10.7560    5.0260   -1.0970 o         1 MOL     -0.705072
     14 O4        -10.9910    3.1120   -0.0150 o         1 MOL     -0.705072
     15 H4         -7.5660    5.7320    2.2510 hn        1 MOL      0.293334
     16 H5         -8.5510    6.2000   -0.5080 h1        1 MOL     -0.035814
     17 H6         -9.7800    5.5500    1.4390 hc        1 MOL     -0.026600
     18 H7         -9.0330    3.9200    1.4550 hc        1 MOL     -0.026600
     19 N2         -6.1040    4.2870   -0.1770 n         1 MOL     -0.533033
     20 C7         -5.1990    3.4080   -0.9230 c3        1 MOL      0.474988
     21 C8         -4.5300    2.4010    0.0730 c         1 MOL      0.275490
     22 O5         -3.7310    2.7570    0.8970 o         1 MOL     -0.493172
     23 C9         -4.1730    4.2490   -1.6070 c3        1 MOL     -0.268730
     24 H8         -5.7020    4.6440    0.6750 hn        1 MOL      0.260366
     25 H9         -5.7080    2.9310   -1.7560 h1        1 MOL      0.014907
     26 H10        -4.7090    4.9850   -2.2090 hc        1 MOL      0.060262
     27 H11        -3.5090    4.8290   -0.9590 hc        1 MOL      0.060262
     28 H12        -3.5990    3.6000   -2.2740 hc        1 MOL      0.060262
     29 N3         -4.8110    1.1270   -0.0720 n         1 MOL     -0.216810
     30 C10        -5.5840    0.3090   -1.0470 c3        1 MOL     -0.251692
     31 C11        -5.8000   -1.0900   -0.4320 c         1 MOL      0.594567
     32 O6         -5.0390   -1.5200    0.4880 o         1 MOL     -0.597061
     33 C12        -4.8020    0.1320   -2.3690 c3        1 MOL     -0.096056
     34 C13        -3.2880   -0.1840   -2.3860 c         1 MOL      0.683707
     35 O7         -2.8240   -0.7850   -1.3760 o         1 MOL     -0.697601
     36 O8         -2.6150    0.3370   -3.3380 o         1 MOL     -0.697601
     37 H13        -4.4330    0.5190    0.6370 hn        1 MOL      0.276486
     38 H14        -6.5180    0.7590   -1.3990 h1        1 MOL      0.126954
     39 H15        -4.8840    1.0640   -2.9340 hc        1 MOL      0.041022
     40 H16        -5.2200   -0.7110   -2.9210 hc        1 MOL      0.041022
     41 N4         -6.7680   -1.8650   -0.9420 n         1 MOL     -0.421166
     42 C14        -7.1930   -3.1360   -0.4150 c3        1 MOL      0.072246
     43 C15        -7.1230   -4.3190   -1.3940 c         1 MOL      0.531895
     44 O9         -8.1760   -4.8120   -1.8150 o         1 MOL     -0.560964
     45 H17        -7.3240   -1.4590   -1.6790 hn        1 MOL      0.311600
     46 H18        -8.2400   -3.0550   -0.1020 h1        1 MOL      0.053617
     47 H19        -6.6540   -3.3850    0.4940 h1        1 MOL      0.053617
     48 N5         -5.9390   -4.8370   -1.7070 n         1 MOL     -0.514138
     49 C16        -4.6640   -4.3450   -1.0940 c3        1 MOL     -0.060686
     50 C17        -4.3620   -5.1010    0.1910 c         1 MOL      0.664443
     51 O10        -4.6380   -6.2870    0.2950 o         1 MOL     -0.576102
     52 C18        -3.5500   -4.6460   -2.2080 c3        1 MOL     -0.033222
     53 C19        -2.2060   -4.0620   -1.8620 c         1 MOL      0.713024
     54 N6         -1.2960   -4.0480   -2.8190 n         1 MOL     -0.859578
     55 O11        -1.8330   -3.6500   -0.8400 o         1 MOL     -0.841043
     56 H20        -6.0030   -5.6380   -2.3220 hn        1 MOL      0.326673
     57 H21        -4.6390   -3.2830   -0.8510 h1        1 MOL      0.127486
     58 H22        -3.8970   -4.3050   -3.1850 hc        1 MOL      0.047744
     59 H23        -3.4470   -5.7260   -2.3540 hc        1 MOL      0.047744
     60 H24        -1.3500   -4.4270   -3.7530 hn        1 MOL      0.387869
     61 H25        -0.4470   -3.7350   -2.3650 hn        1 MOL      0.387869
     62 N7         -3.8200   -4.4480    1.2020 n         1 MOL     -0.430738
     63 C20        -3.5010   -5.0110    2.5170 c3        1 MOL     -0.271828
     64 C21        -2.0240   -5.2660    2.7140 c         1 MOL      0.549763
     65 O12        -1.5630   -5.7380    3.7780 o         1 MOL     -0.594651
     66 H26        -3.4190   -3.5560    0.9490 hn        1 MOL      0.415796
     67 H27        -3.8580   -6.0440    2.6050 h1        1 MOL      0.143962
     68 H28        -3.8090   -4.2910    3.2710 h1        1 MOL      0.143962
     69 N8         -1.1690   -4.8700    1.7300 n         1 MOL     -0.223592
     70 C22         0.2910   -5.0930    1.8600 c3        1 MOL      0.002709
     71 C23         1.1120   -3.8190    1.8550 c         1 MOL      0.289243
     72 O13         0.6860   -2.8120    1.3060 o         1 MOL     -0.447112
     73 C24         0.8790   -6.0710    0.7570 c3        1 MOL      0.261538
     74 C25         0.4580   -7.4700    1.1010 c3        1 MOL     -0.485312
     75 O14         0.4770   -5.8090   -0.5790 oh        1 MOL     -0.498986
     76 H29        -1.5740   -4.4600    0.8980 hn        1 MOL      0.276038
     77 H30         0.5860   -5.5230    2.8190 h1        1 MOL      0.081103
     78 H31         1.9570   -6.0360    0.8580 h1        1 MOL      0.039287
     79 H32         0.9400   -5.0330   -0.9110 ho        1 MOL      0.345678
     80 H33        -0.6230   -7.5740    1.0370 hc        1 MOL      0.123998
     81 H34         0.7910   -8.1870    0.3600 hc        1 MOL      0.123998
     82 H35         0.9310   -7.6830    2.0680 hc        1 MOL      0.123998
     83 N9          2.2070   -3.7310    2.6140 n         1 MOL     -0.284770
     84 C26         3.1890   -2.5870    2.4650 c3        1 MOL     -0.060930
     85 C27         3.9620   -2.8540    1.1500 c         1 MOL      0.317394
     86 O15         4.9890   -3.5310    1.1050 o         1 MOL     -0.563741
     87 C28         4.1440   -2.4690    3.7420 c3        1 MOL      0.144257
     88 C29         4.8230   -1.1100    3.7610 c3        1 MOL     -0.101165
     89 C30         3.3260   -2.5410    5.0790 c3        1 MOL     -0.299249
     90 C31         5.5740   -0.6210    2.6150 c3        1 MOL     -0.014915
     91 H36         2.5240   -4.5560    3.0880 hn        1 MOL      0.255409
     92 H37         2.6580   -1.6270    2.3950 h1        1 MOL      0.149916
     93 H38         4.9060   -3.2120    3.9790 hc        1 MOL      0.029878
     94 H39         5.6560   -1.0840    4.4680 hc        1 MOL      0.037337
     95 H40         4.0860   -0.3460    4.0010 hc        1 MOL      0.037337
     96 H41         3.9700   -2.2710    5.9130 hc        1 MOL      0.062934
     97 H42         2.4420   -1.9200    4.9810 hc        1 MOL      0.062934
     98 H43         2.8810   -3.5280    5.2050 hc        1 MOL      0.062934
     99 H44         4.9800   -0.5570    1.7010 hc        1 MOL      0.001132
    100 H45         5.9380    0.3840    2.8160 hc        1 MOL      0.001132
    101 H46         6.3930   -1.3270    2.4530 hc        1 MOL      0.001132
    102 N10         3.5120   -2.3190   -0.0590 n         1 MOL      0.101886
    103 C32         4.1650   -2.6500   -1.3430 c3        1 MOL     -0.133220
    104 C33         5.3240   -1.6660   -1.7100 c         1 MOL      0.551618
    105 O16         5.9610   -1.9150   -2.7290 o         1 MOL     -0.570847
    106 C34         3.1460   -2.5660   -2.4610 c3        1 MOL     -0.145916
    107 C35         1.9150   -3.4190   -2.1700 c         1 MOL      0.632026
    108 O17         1.9910   -4.5650   -2.5770 o         1 MOL     -0.635349
    109 O18         0.9560   -2.9080   -1.5320 o         1 MOL     -0.635349
    110 H47         2.8490   -1.5680   -0.0240 hn        1 MOL      0.007258
    111 H48         4.5350   -3.6750   -1.3030 h1        1 MOL      0.128811
    112 H49         3.5710   -2.8870   -3.4090 hc        1 MOL      0.035993
    113 H50         2.8510   -1.5420   -2.6620 hc        1 MOL      0.035993
    114 N11         5.6890   -0.6590   -0.9470 n         1 MOL     -0.374278
    115 C36         6.5880    0.3760   -1.4270 c3        1 MOL      0.173826
    116 C37         6.2910    1.6660   -0.7150 c         1 MOL      0.372571
    117 O19         6.2400    1.6610    0.5760 o         1 MOL     -0.551661
    118 C38         8.0150   -0.1700   -1.1750 c3        1 MOL     -0.267487
    119 C39         9.0930    0.8510   -1.4690 ca        1 MOL      0.160021
    120 C40         9.6330    1.5620   -0.4530 ca        1 MOL     -0.156079
    121 C41         9.5690    1.0390   -2.7730 ca        1 MOL     -0.156079
    122 C42        10.6440    2.4790   -0.6380 ca        1 MOL     -0.113576
    123 C43        10.4720    2.0510   -3.0210 ca        1 MOL     -0.113576
    124 C44        11.0260    2.7620   -1.9840 ca        1 MOL     -0.126108
    125 H51         5.0730   -0.5540   -0.1560 hn        1 MOL      0.250188
    126 H52         6.4240    0.5500   -2.4890 h1        1 MOL      0.020936
    127 H53         8.2500   -1.0460   -1.7820 hc        1 MOL      0.116640
    128 H54         8.0170   -0.4080   -0.1080 hc        1 MOL      0.116640
    129 H55         9.2400    1.2980    0.5180 ha        1 MOL      0.112978
    130 H56         9.1600    0.5040   -3.6190 ha        1 MOL      0.112978
    131 H57        10.9700    3.0390    0.2370 ha        1 MOL      0.104351
    132 H58        10.7930    2.2890   -4.0320 ha        1 MOL      0.104351
    133 H59        11.7380    3.5540   -2.1820 ha        1 MOL      0.094806
    134 N12         6.2650    2.8820   -1.3290 n         1 MOL      0.030950
    135 C45         6.4470    4.2150   -0.5960 c3        1 MOL     -0.081733
    136 C46         5.1160    4.7870    0.1010 c         1 MOL      0.582970
    137 O20         5.2130    5.8830    0.6490 o         1 MOL     -0.549694
    138 C47         7.0550    5.2010   -1.6650 c3        1 MOL     -0.065181
    139 C48         6.3930    4.6750   -2.9560 c3        1 MOL     -0.028166
    140 C49         6.4410    3.0910   -2.7530 c3        1 MOL     -0.413151
    141 H60         7.1500    4.1710    0.2420 h1        1 MOL      0.079744
    142 H61         6.8430    6.2470   -1.4710 hc        1 MOL      0.054836
    143 H62         8.1340    5.0530   -1.6670 hc        1 MOL      0.054836
    144 H63         5.3770    5.0600   -3.0370 hc        1 MOL      0.048011
    145 H64         7.0790    4.9520   -3.7530 hc        1 MOL      0.048011
    146 H65         5.5990    2.7590   -3.3590 h1        1 MOL      0.165165
    147 H66         7.4370    2.7630   -3.0350 h1        1 MOL      0.165165
    148 N13         4.0470    3.9440    0.2120 n         1 MOL     -0.406495
    149 C50         2.8860    4.2000    1.0540 c3        1 MOL     -0.126854
    150 C51         3.2830    4.5210    2.4860 c         1 MOL      0.521291
    151 O21         2.4500    5.1740    3.1430 o         1 MOL     -0.531504
    152 C52         1.9010    3.0080    0.9710 c3        1 MOL      0.081609
    153 C53         2.4980    1.7010    1.5030 c3        1 MOL     -0.144393
    154 C54         1.6490    0.5500    1.0660 c         1 MOL      0.677859
    155 O22         1.9660   -0.1440    0.0850 o         1 MOL     -0.685901
    156 O23         0.6360    0.3060    1.7460 o         1 MOL     -0.685901
    157 H67         4.0270    3.0670   -0.2850 hn        1 MOL      0.244737
    158 H68         2.2990    5.0390    0.6860 h1        1 MOL      0.118517
    159 H69         1.6510    2.8560   -0.0860 hc        1 MOL      0.020546
    160 H70         0.9260    3.2120    1.4120 hc        1 MOL      0.020546
    161 H71         2.6400    1.6630    2.5790 hc        1 MOL      0.029922
    162 H72         3.4960    1.5580    1.0810 hc        1 MOL      0.029922
    163 N14         4.5120    4.1830    2.9700 n         1 MOL     -0.247798
    164 C55         4.8030    4.2710    4.3810 c3        1 MOL     -0.123005
    165 H73         3.8790    4.4530    4.9320 h1        1 MOL      0.065476
    166 H74         5.2490    3.3360    4.7200 h1        1 MOL      0.065476
    167 H75         5.4980    5.0920    4.5590 h1        1 MOL      0.065476
    168 H76         5.3320    4.1080    2.3950 hn        1 MOL      0.257514
    169 Ca1        -0.5830   -1.1350   -0.2010 Ca        1 MOL      1.707595
    170 O24        -0.0290    0.1450   -2.5140 oh        1 MOL     -0.841452
    171 H77         0.4710   -0.2720   -3.2120 ho        1 MOL      0.399944
    172 H78        -0.9010    0.2780   -2.8840 ho        1 MOL      0.399944
    173 O25        -2.3170   -1.5590    1.6370 oh        1 MOL     -0.841452
    174 H79        -3.1960   -1.3490    1.3100 ho        1 MOL      0.399944
    175 H80        -2.1700   -0.9420    2.3510 ho        1 MOL      0.399944
    176 O26        -1.3530    1.7770   -0.0210 oh        1 MOL     -0.841452
    177 H81        -2.0810    2.3760    0.1750 ho        1 MOL      0.399944
    178 H82        -1.0210    2.0710   -0.8640 ho        1 MOL      0.399944
@<TRIPOS>BOND
     1    1    2 1   
     2    1    4 1   
     3    1    5 1   
     4    1    6 1   
     5    2    3 2   
     6    2    7 1   
     7    7    8 1   
     8    7   15 1   
     9    8    9 1   
    10    8   11 1   
    11    8   16 1   
    12    9   10 2   
    13    9   19 1   
    14   11   12 1   
    15   11   17 1   
    16   11   18 1   
    17   12   13 1   
    18   12   14 1   
    19   19   20 1   
    20   19   24 1   
    21   20   21 1   
    22   20   23 1   
    23   20   25 1   
    24   21   22 2   
    25   21   29 1   
    26   23   26 1   
    27   23   27 1   
    28   23   28 1   
    29   29   30 1   
    30   29   37 1   
    31   30   31 1   
    32   30   33 1   
    33   30   38 1   
    34   31   32 2   
    35   31   41 1   
    36   33   34 1   
    37   33   39 1   
    38   33   40 1   
    39   34   35 1   
    40   34   36 1   
    41   41   42 1   
    42   41   45 1   
    43   42   43 1   
    44   42   46 1   
    45   42   47 1   
    46   43   44 2   
    47   43   48 1   
    48   48   49 1   
    49   48   56 1   
    50   49   50 1   
    51   49   52 1   
    52   49   57 1   
    53   50   51 2   
    54   50   62 1   
    55   52   53 1   
    56   52   58 1   
    57   52   59 1   
    58   53   54 1   
    59   53   55 2   
    60   54   60 1   
    61   54   61 1   
    62   62   63 1   
    63   62   66 1   
    64   63   64 1   
    65   63   67 1   
    66   63   68 1   
    67   64   65 2   
    68   64   69 1   
    69   69   70 1   
    70   69   76 1   
    71   70   71 1   
    72   70   73 1   
    73   70   77 1   
    74   71   72 2   
    75   71   83 1   
    76   73   74 1   
    77   73   75 1   
    78   73   78 1   
    79   74   80 1   
    80   74   81 1   
    81   74   82 1   
    82   75   79 1   
    83   83   84 1   
    84   83   91 1   
    85   84   85 1   
    86   84   87 1   
    87   84   92 1   
    88   85   86 2   
    89   85  102 1   
    90   87   88 1   
    91   87   89 1   
    92   87   93 1   
    93   88   90 1   
    94   88   94 1   
    95   88   95 1   
    96   89   96 1   
    97   89   97 1   
    98   89   98 1   
    99   90   99 1   
   100   90  100 1   
   101   90  101 1   
   102  102  103 1   
   103  102  110 1   
   104  103  104 1   
   105  103  106 1   
   106  103  111 1   
   107  104  105 2   
   108  104  114 1   
   109  106  107 1   
   110  106  112 1   
   111  106  113 1   
   112  107  108 1   
   113  107  109 1   
   114  114  115 1   
   115  114  125 1   
   116  115  116 1   
   117  115  118 1   
   118  115  126 1   
   119  116  117 2   
   120  116  134 1   
   121  118  119 1   
   122  118  127 1   
   123  118  128 1   
   124  119  120 ar  
   125  119  121 ar  
   126  120  122 ar  
   127  120  129 1   
   128  121  123 ar  
   129  121  130 1   
   130  122  124 ar  
   131  122  131 1   
   132  123  124 ar  
   133  123  132 1   
   134  124  133 1   
   135  134  135 1   
   136  134  140 1   
   137  135  136 1   
   138  135  138 1   
   139  135  141 1   
   140  136  137 2   
   141  136  148 1   
   142  138  139 1   
   143  138  142 1   
   144  138  143 1   
   145  139  140 1   
   146  139  144 1   
   147  139  145 1   
   148  140  146 1   
   149  140  147 1   
   150  148  149 1   
   151  148  157 1   
   152  149  150 1   
   153  149  152 1   
   154  149  158 1   
   155  150  151 2   
   156  150  163 1   
   157  152  153 1   
   158  152  159 1   
   159  152  160 1   
   160  153  154 1   
   161  153  161 1   
   162  153  162 1   
   163  154  155 1   
   164  154  156 1   
   165  163  164 1   
   166  163  168 1   
   167  164  165 1   
   168  164  166 1   
   169  164  167 1   
   170  170  171 1   
   171  170  172 1   
   172  173  174 1   
   173  173  175 1   
   174  176  177 1   
   175  176  178 1   
@<TRIPOS>SUBSTRUCTURE
     1 MOL         1 TEMP              0 ****  ****    0 ROOT
