@<TRIPOS>MOLECULE
MOL
  195   189     1     0     0
SMALL
resp


@<TRIPOS>ATOM
      1 C1         -6.7000   -3.3690    4.5430 c3        1 MOL     -0.260498
      2 C2         -5.9400   -2.5600    3.4220 c         1 MOL      0.723811
      3 O1         -5.4420   -3.2880    2.5520 o         1 MOL     -0.579590
      4 H1         -7.4460   -2.7270    5.0110 hc        1 MOL      0.065757
      5 H2         -7.1930   -4.2330    4.0980 hc        1 MOL      0.065757
      6 H3         -5.9870   -3.7060    5.2960 hc        1 MOL      0.065757
      7 N1         -5.8810   -1.2010    3.3670 n         1 MOL     -0.608790
      8 C3         -5.3210   -0.4280    2.2630 c3        1 MOL      0.632941
      9 C4         -3.8050   -0.4150    1.9890 c         1 MOL     -0.114012
     10 O2         -3.3920    0.2000    0.9760 o         1 MOL     -0.274749
     11 C5         -5.7390    1.0230    2.4630 c3        1 MOL     -0.322179
     12 C6         -7.2560    1.1660    2.3720 c         1 MOL      0.726928
     13 O3         -7.9440    1.0820    3.4100 o         1 MOL     -0.705054
     14 O4         -7.7840    1.3590    1.2820 o         1 MOL     -0.705054
     15 H4         -6.3030   -0.7120    4.1410 hn        1 MOL      0.265516
     16 H5         -5.6570   -0.7960    1.2860 h1        1 MOL     -0.033387
     17 H6         -5.3060    1.5660    1.6180 hc        1 MOL      0.022440
     18 H7         -5.3560    1.3240    3.4310 hc        1 MOL      0.022440
     19 N2         -3.0240   -0.9830    2.9760 n         1 MOL     -0.149514
     20 C7         -1.5650   -0.7900    3.0690 c3        1 MOL      0.071134
     21 C8         -0.7510   -2.0160    2.6410 c         1 MOL      0.423539
     22 O5         -1.1550   -3.1680    3.0220 o         1 MOL     -0.527729
     23 C9         -1.2670   -0.3450    4.5040 c3        1 MOL     -0.422538
     24 C10        -1.8060    1.1230    4.6500 c3        1 MOL      0.295756
     25 C11        -1.5840    1.7490    6.0210 c3        1 MOL     -0.232149
     26 C12        -2.4450    2.9850    6.0260 c3        1 MOL      0.245545
     27 N3         -2.4400    3.6430    7.3720 n4        1 MOL     -0.451894
     28 H8         -3.6070   -1.4350    3.6600 hn        1 MOL      0.197412
     29 H9         -1.2470    0.0330    2.4260 h1        1 MOL      0.106409
     30 H10        -0.1910   -0.2020    4.6180 hc        1 MOL      0.133920
     31 H11        -1.6420   -1.0590    5.2310 hc        1 MOL      0.133920
     32 H12        -2.8940    1.1290    4.5290 hc        1 MOL     -0.025843
     33 H13        -1.3170    1.6820    3.8470 hc        1 MOL     -0.025843
     34 H14        -0.5110    1.9500    6.0660 hc        1 MOL      0.066026
     35 H15        -1.9770    1.1180    6.8300 hc        1 MOL      0.066026
     36 H16        -3.4480    2.6700    5.7460 hx        1 MOL      0.029421
     37 H17        -2.1730    3.6670    5.2210 hx        1 MOL      0.029421
     38 H18        -2.5280    2.9420    8.0940 hn        1 MOL      0.326111
     39 H19        -1.5810    4.1530    7.5630 hn        1 MOL      0.326111
     40 H20        -3.2050    4.2860    7.4390 hn        1 MOL      0.326111
     41 N4          0.2760   -1.9940    1.8540 n         1 MOL     -0.281360
     42 C13         1.1570   -0.9270    1.3890 c3        1 MOL     -0.037169
     43 C14         1.6240    0.1310    2.5190 c         1 MOL      0.581040
     44 O6          1.0050    1.1790    2.6200 o         1 MOL     -0.523542
     45 C15         0.5940   -0.2430    0.1000 c3        1 MOL     -0.233588
     46 C16         0.4120   -1.1400   -1.1030 c         1 MOL      0.657910
     47 O7          1.0060   -2.2270   -1.1270 o         1 MOL     -0.744502
     48 O8         -0.4040   -0.7410   -1.9730 o         1 MOL     -0.744502
     49 H21         0.3900   -2.8600    1.3450 hn        1 MOL      0.171732
     50 H22         2.0310   -1.5100    1.1080 h1        1 MOL      0.022905
     51 H23         1.2240    0.6240   -0.0920 hc        1 MOL      0.132886
     52 H24        -0.4140    0.0680    0.3870 hc        1 MOL      0.132886
     53 N5          2.7260   -0.1170    3.3160 n         1 MOL     -0.501918
     54 C17         3.6230   -1.3210    3.2610 c3        1 MOL      0.033151
     55 C18         5.0460   -1.1600    3.8700 c         1 MOL      0.527521
     56 O9          5.3140   -0.4460    4.8230 o         1 MOL     -0.555631
     57 H25         2.9210    0.6000    4.0030 hn        1 MOL      0.308772
     58 H26         3.8000   -1.5210    2.2090 h1        1 MOL      0.080918
     59 H27         3.1700   -2.2260    3.6620 h1        1 MOL      0.080918
     60 N6          6.0140   -1.8840    3.3780 n         1 MOL     -0.440910
     61 C19         6.1500   -2.8720    2.2780 c3        1 MOL      0.156520
     62 C20         6.7410   -2.3860    0.9400 c         1 MOL      0.534402
     63 O10         7.3770   -1.3640    0.8540 o         1 MOL     -0.506756
     64 C21         6.9430   -4.0930    2.7580 c3        1 MOL     -0.222480
     65 C22         8.3450   -3.7920    3.3780 c         1 MOL      0.772825
     66 O11         9.2060   -4.6900    3.5210 o         1 MOL     -0.684192
     67 O12         8.4860   -2.6770    3.8330 o         1 MOL     -0.684192
     68 H28         6.9160   -1.7020    3.8070 hn        1 MOL      0.332466
     69 H29         5.1430   -3.1770    1.9840 h1        1 MOL     -0.061250
     70 H30         7.0590   -4.7710    1.9100 hc        1 MOL      0.003614
     71 H31         6.3060   -4.5350    3.5380 hc        1 MOL      0.003614
     72 N7          6.3290   -2.9780   -0.1700 n         1 MOL     -0.345705
     73 C23         6.8470   -2.6800   -1.5480 c3        1 MOL     -0.077048
     74 C24         6.3530   -1.4360   -2.3110 c         1 MOL      0.525212
     75 O13         6.8810   -1.0450   -3.3650 o         1 MOL     -0.595855
     76 H32         5.6750   -3.7300   -0.0820 hn        1 MOL      0.251732
     77 H33         6.5620   -3.5130   -2.1930 h1        1 MOL      0.078899
     78 H34         7.9350   -2.7340   -1.6100 h1        1 MOL      0.078899
     79 N8          5.3840   -0.7710   -1.7850 n         1 MOL     -0.217240
     80 C25         4.7210    0.4880   -2.3200 c3        1 MOL     -0.092310
     81 C26         4.5940    1.6040   -1.3060 c         1 MOL      0.609286
     82 O14         4.2340    1.4120   -0.1150 o         1 MOL     -0.508219
     83 C27         3.3160    0.1340   -3.0100 c3        1 MOL      0.524380
     84 C28         3.7000   -0.7080   -4.2370 c3        1 MOL     -0.244964
     85 O15         2.6370    1.2160   -3.4410 oh        1 MOL     -0.707255
     86 H35         5.0470   -1.1240   -0.9000 hn        1 MOL      0.128850
     87 H36         5.3980    0.9250   -3.0680 h1        1 MOL      0.106939
     88 H37         2.7660   -0.4740   -2.2970 h1        1 MOL     -0.069702
     89 H38         1.7150    1.0040   -3.5740 ho        1 MOL      0.472458
     90 H39         4.3170   -1.5490   -3.9300 hc        1 MOL      0.038086
     91 H40         2.8140   -1.1130   -4.7390 hc        1 MOL      0.038086
     92 H41         4.2230   -0.0620   -4.9530 hc        1 MOL      0.038086
     93 N9          4.9710    2.7820   -1.7470 n         1 MOL     -0.547360
     94 C29         5.3910    3.9240   -0.9260 c3        1 MOL     -0.170769
     95 C30         4.0960    4.5550   -0.3380 c         1 MOL      0.496216
     96 O16         4.1910    5.3140    0.5900 o         1 MOL     -0.519328
     97 C31         6.2930    4.9420   -1.6520 c3        1 MOL      0.104135
     98 C32         7.4240    4.1220   -2.3640 c3        1 MOL      0.059643
     99 C33         6.6420    6.1390   -0.8360 c3        1 MOL     -0.150842
    100 C34         8.4260    4.9850   -3.1620 c3        1 MOL     -0.389983
    101 H42         4.9920    2.9430   -2.7460 hn        1 MOL      0.337916
    102 H43         5.9010    3.5810   -0.0280 h1        1 MOL      0.174472
    103 H44         5.7240    5.3330   -2.4920 hc        1 MOL      0.027237
    104 H45         7.0050    3.4160   -3.0800 hc        1 MOL      0.035624
    105 H46         7.9550    3.5230   -1.6250 hc        1 MOL      0.035624
    106 H47         7.0040    5.8170    0.1410 hc        1 MOL      0.044242
    107 H48         7.4180    6.7040   -1.3480 hc        1 MOL      0.044242
    108 H49         5.7750    6.7600   -0.5970 hc        1 MOL      0.044242
    109 H50         7.8860    5.5730   -3.9040 hc        1 MOL      0.100017
    110 H51         9.0380    5.6040   -2.5120 hc        1 MOL      0.100017
    111 H52         9.2660    4.4050   -3.5510 hc        1 MOL      0.100017
    112 N10         2.9120    4.2540   -0.8980 n         1 MOL     -0.220773
    113 C35         1.6040    4.9410   -0.6350 c3        1 MOL     -0.022303
    114 C36         0.4520    3.9110   -0.6910 c         1 MOL      0.479973
    115 O17         0.4420    2.9810   -1.5510 o         1 MOL     -0.426141
    116 C37         1.2480    6.0750   -1.6750 c3        1 MOL      0.315766
    117 C38         1.1780    5.7480   -3.1330 c3        1 MOL     -0.193808
    118 O18         2.1670    7.1470   -1.5970 oh        1 MOL     -0.602852
    119 H53         2.7930    3.3810   -1.3960 hn        1 MOL      0.142397
    120 H54         1.6070    5.3550    0.3790 h1        1 MOL      0.039275
    121 H55         0.3150    6.4670   -1.2680 h1        1 MOL     -0.016046
    122 H56         2.2190    7.4490   -0.6930 ho        1 MOL      0.374890
    123 H57         2.1710    5.5620   -3.5420 hc        1 MOL      0.057040
    124 H58         0.6240    4.8080   -3.1510 hc        1 MOL      0.057040
    125 H59         0.6110    6.5020   -3.6860 hc        1 MOL      0.057040
    126 N11        -0.5800    4.1510    0.1400 n         1 MOL     -0.415228
    127 C39        -1.7700    3.2790    0.3370 c3        1 MOL     -0.048768
    128 C40        -2.5480    3.0590   -1.0140 c         1 MOL      0.430363
    129 O19        -2.3520    3.8910   -1.9400 o         1 MOL     -0.522965
    130 C41        -2.7040    3.9110    1.4600 c3        1 MOL      0.232285
    131 C42        -3.4270    5.2230    1.1090 c3        1 MOL     -0.132100
    132 O20        -1.8950    4.1460    2.6230 oh        1 MOL     -0.575877
    133 H60        -0.5320    5.0110    0.6690 hn        1 MOL      0.312123
    134 H61        -1.4460    2.3170    0.7240 h1        1 MOL      0.101690
    135 H62        -3.5470    3.2710    1.7310 h1        1 MOL      0.041218
    136 H63        -2.4180    4.1650    3.4210 ho        1 MOL      0.336790
    137 H64        -2.6850    5.9970    0.8750 hc        1 MOL      0.035817
    138 H65        -3.9360    5.0420    0.1640 hc        1 MOL      0.035817
    139 H66        -4.1370    5.5670    1.8520 hc        1 MOL      0.035817
    140 N12        -3.3740    2.0590   -1.2350 n         1 MOL     -0.145511
    141 C43        -4.1060    1.6780   -2.4490 c3        1 MOL     -0.033273
    142 C44        -4.1330    0.1670   -2.7630 c         1 MOL      0.496361
    143 O21        -4.6180   -0.2180   -3.8430 o         1 MOL     -0.593576
    144 C45        -5.5950    2.1090   -2.1820 c3        1 MOL     -0.073758
    145 C46        -6.5470    1.9320   -3.3880 c3        1 MOL     -0.215521
    146 C47        -7.9300    2.3150   -2.7800 c3        1 MOL      0.471379
    147 C48        -9.1520    1.7820   -3.5420 c3        1 MOL      0.032773
    148 N13       -10.3710    2.5990   -3.4700 n4        1 MOL     -0.397569
    149 H67        -3.4940    1.3970   -0.4840 hn        1 MOL      0.064489
    150 H68        -3.7230    2.2270   -3.3080 h1        1 MOL      0.097587
    151 H69        -5.7440    3.1440   -1.8730 hc        1 MOL      0.066918
    152 H70        -5.9610    1.5110   -1.3470 hc        1 MOL      0.066918
    153 H71        -6.6310    0.9150   -3.7770 hc        1 MOL      0.053896
    154 H72        -6.3170    2.5060   -4.2850 hc        1 MOL      0.053896
    155 H73        -7.9090    3.3820   -3.0040 hc        1 MOL     -0.116450
    156 H74        -7.9930    2.1640   -1.7020 hc        1 MOL     -0.116450
    157 H75        -9.3060    0.7370   -3.2650 hx        1 MOL      0.054041
    158 H76        -8.7590    1.8430   -4.5570 hx        1 MOL      0.054041
    159 H77       -10.0810    3.5640   -3.5370 hn        1 MOL      0.332029
    160 H78       -10.9600    2.3480   -4.2540 hn        1 MOL      0.332029
    161 H79       -10.9530    2.5050   -2.6470 hn        1 MOL      0.332029
    162 N14        -3.7680   -0.7280   -1.8080 n         1 MOL      0.018406
    163 C49        -3.9970   -2.2330   -1.8120 c3        1 MOL     -0.456995
    164 C50        -5.4650   -2.6710   -1.9680 c         1 MOL      0.414590
    165 O22        -6.3810   -2.1280   -1.3460 o         1 MOL     -0.474768
    166 C51        -3.1430   -2.8190   -0.6600 c3        1 MOL      1.216956
    167 C52        -3.1040   -4.3890   -0.5770 c3        1 MOL     -0.668559
    168 C53        -2.4880   -4.9750   -1.8820 c         1 MOL      0.682382
    169 O23        -3.3080   -5.2290   -2.7670 o         1 MOL     -0.718029
    170 O24        -1.2530   -5.2370   -1.9220 o         1 MOL     -0.718029
    171 H80        -3.4040   -0.2630   -0.9860 hn        1 MOL      0.081184
    172 H81        -3.5240   -2.4650   -2.7730 h1        1 MOL      0.094611
    173 H82        -3.6120   -2.5280    0.2810 hc        1 MOL     -0.297008
    174 H83        -2.0840   -2.5560   -0.7710 hc        1 MOL     -0.297008
    175 H84        -4.1100   -4.7760   -0.4150 hc        1 MOL      0.159556
    176 H85        -2.4500   -4.5620    0.2750 hc        1 MOL      0.159556
    177 N15        -5.7430   -3.6730   -2.8250 n         1 MOL     -0.282549
    178 C54        -7.0300   -4.3100   -3.0660 c3        1 MOL     -0.006497
    179 H86        -7.8040   -3.7880   -2.5050 h1        1 MOL      0.041355
    180 H87        -7.2620   -4.2700   -4.1300 h1        1 MOL      0.041355
    181 H88        -6.9870   -5.3500   -2.7420 h1        1 MOL      0.041355
    182 H89        -4.9870   -4.0360   -3.3960 hn        1 MOL      0.351934
    183 Ca1         1.0720   -4.5480   -2.0080 Ca        1 MOL      1.792611
    184 O25        -0.0420   -2.9040   -3.7720 oh        1 MOL     -0.923905
    185 H90        -0.1420   -2.5260   -4.6540 ho        1 MOL      0.449375
    186 H91        -0.2400   -2.1830   -3.1840 ho        1 MOL      0.449375
    187 O26         1.7980   -6.7060   -3.7020 oh        1 MOL     -0.923905
    188 H92         1.3010   -7.3500   -4.1990 ho        1 MOL      0.449375
    189 H93         2.6190   -7.1430   -3.4880 ho        1 MOL      0.449375
    190 O27         3.4190   -3.9120   -3.1830 oh        1 MOL     -0.923905
    191 H94         4.2580   -4.3770   -3.2330 ho        1 MOL      0.449375
    192 H95         3.1450   -3.8110   -4.0920 ho        1 MOL      0.449375
    193 O28         0.2590   -7.2120   -1.1930 oh        1 MOL     -0.923905
    194 H96        -0.0500   -8.1020   -0.9760 ho        1 MOL      0.449375
    195 H97        -0.5370   -6.7340   -1.4160 ho        1 MOL      0.449375
@<TRIPOS>BOND
     1    1    2 1   
     2    1    4 1   
     3    1    5 1   
     4    1    6 1   
     5    2    3 2   
     6    2    7 1   
     7    7    8 1   
     8    7   15 1   
     9    8    9 1   
    10    8   11 1   
    11    8   16 1   
    12    9   10 2   
    13    9   19 1   
    14   11   12 1   
    15   11   17 1   
    16   11   18 1   
    17   12   13 1   
    18   12   14 1   
    19   19   20 1   
    20   19   28 1   
    21   20   21 1   
    22   20   23 1   
    23   20   29 1   
    24   21   22 2   
    25   21   41 1   
    26   23   24 1   
    27   23   30 1   
    28   23   31 1   
    29   24   25 1   
    30   24   32 1   
    31   24   33 1   
    32   25   26 1   
    33   25   34 1   
    34   25   35 1   
    35   26   27 1   
    36   26   36 1   
    37   26   37 1   
    38   27   38 1   
    39   27   39 1   
    40   27   40 1   
    41   41   42 1   
    42   41   49 1   
    43   42   43 1   
    44   42   45 1   
    45   42   50 1   
    46   43   44 2   
    47   43   53 1   
    48   45   46 1   
    49   45   51 1   
    50   45   52 1   
    51   46   47 1   
    52   46   48 1   
    53   53   54 1   
    54   53   57 1   
    55   54   55 1   
    56   54   58 1   
    57   54   59 1   
    58   55   56 2   
    59   55   60 1   
    60   60   61 1   
    61   60   68 1   
    62   61   62 1   
    63   61   64 1   
    64   61   69 1   
    65   62   63 2   
    66   62   72 1   
    67   64   65 1   
    68   64   70 1   
    69   64   71 1   
    70   65   66 1   
    71   65   67 1   
    72   72   73 1   
    73   72   76 1   
    74   73   74 1   
    75   73   77 1   
    76   73   78 1   
    77   74   75 2   
    78   74   79 1   
    79   79   80 1   
    80   79   86 1   
    81   80   81 1   
    82   80   83 1   
    83   80   87 1   
    84   81   82 2   
    85   81   93 1   
    86   83   84 1   
    87   83   85 1   
    88   83   88 1   
    89   84   90 1   
    90   84   91 1   
    91   84   92 1   
    92   85   89 1   
    93   93   94 1   
    94   93  101 1   
    95   94   95 1   
    96   94   97 1   
    97   94  102 1   
    98   95   96 2   
    99   95  112 1   
   100   97   98 1   
   101   97   99 1   
   102   97  103 1   
   103   98  100 1   
   104   98  104 1   
   105   98  105 1   
   106   99  106 1   
   107   99  107 1   
   108   99  108 1   
   109  100  109 1   
   110  100  110 1   
   111  100  111 1   
   112  112  113 1   
   113  112  119 1   
   114  113  114 1   
   115  113  116 1   
   116  113  120 1   
   117  114  115 2   
   118  114  126 1   
   119  116  117 1   
   120  116  118 1   
   121  116  121 1   
   122  117  123 1   
   123  117  124 1   
   124  117  125 1   
   125  118  122 1   
   126  126  127 1   
   127  126  133 1   
   128  127  128 1   
   129  127  130 1   
   130  127  134 1   
   131  128  129 2   
   132  128  140 1   
   133  130  131 1   
   134  130  132 1   
   135  130  135 1   
   136  131  137 1   
   137  131  138 1   
   138  131  139 1   
   139  132  136 1   
   140  140  141 1   
   141  140  149 1   
   142  141  142 1   
   143  141  144 1   
   144  141  150 1   
   145  142  143 2   
   146  142  162 1   
   147  144  145 1   
   148  144  151 1   
   149  144  152 1   
   150  145  146 1   
   151  145  153 1   
   152  145  154 1   
   153  146  147 1   
   154  146  155 1   
   155  146  156 1   
   156  147  148 1   
   157  147  157 1   
   158  147  158 1   
   159  148  159 1   
   160  148  160 1   
   161  148  161 1   
   162  162  163 1   
   163  162  171 1   
   164  163  164 1   
   165  163  166 1   
   166  163  172 1   
   167  164  165 2   
   168  164  177 1   
   169  166  167 1   
   170  166  173 1   
   171  166  174 1   
   172  167  168 1   
   173  167  175 1   
   174  167  176 1   
   175  168  169 1   
   176  168  170 1   
   177  177  178 1   
   178  177  182 1   
   179  178  179 1   
   180  178  180 1   
   181  178  181 1   
   182  184  185 1   
   183  184  186 1   
   184  187  188 1   
   185  187  189 1   
   186  190  191 1   
   187  190  192 1   
   188  193  194 1   
   189  193  195 1   
@<TRIPOS>SUBSTRUCTURE
     1 MOL         1 TEMP              0 ****  ****    0 ROOT
