@<TRIPOS>MOLECULE
MOL
  189   185     1     0     0
SMALL
resp


@<TRIPOS>ATOM
      1 C1         12.0200   -6.3520    1.1930 c3        1 MOL     -0.309802
      2 C2         11.7580   -5.0420    0.3990 c         1 MOL      0.567378
      3 O1         12.7350   -4.3370    0.0890 o         1 MOL     -0.534848
      4 H1         11.8900   -7.2090    0.5310 hc        1 MOL      0.084703
      5 H2         13.0380   -6.3450    1.5810 hc        1 MOL      0.084703
      6 H3         11.3140   -6.4230    2.0210 hc        1 MOL      0.084703
      7 N1         10.5110   -4.7170   -0.0000 n         1 MOL     -0.090904
      8 C3         10.1730   -3.4550   -0.6480 c3        1 MOL     -0.433830
      9 C4          8.8610   -2.8730   -0.0450 c         1 MOL      0.406658
     10 O2          7.8980   -3.5880    0.3040 o         1 MOL     -0.584854
     11 C5         10.0600   -3.6820   -2.1350 c3        1 MOL      0.244085
     12 C6          9.1710   -4.9200   -2.4830 c         1 MOL      0.493770
     13 O3          7.9760   -4.8540   -2.0950 o         1 MOL     -0.663553
     14 O4          9.7070   -5.9300   -3.0300 o         1 MOL     -0.663553
     15 H4          9.7050   -5.2270    0.3310 hn        1 MOL      0.143012
     16 H5         10.9620   -2.7200   -0.5280 h1        1 MOL      0.121890
     17 H6         11.0360   -3.8730   -2.6020 hc        1 MOL      0.009128
     18 H7          9.6790   -2.7610   -2.5790 hc        1 MOL      0.009128
     19 N2          8.8060   -1.5420    0.2060 n         1 MOL     -0.152217
     20 C7          7.7120   -0.7880    0.8610 c3        1 MOL     -0.217715
     21 C8          6.9430   -0.0560   -0.2430 c         1 MOL      0.750611
     22 O5          7.4770    0.7290   -1.0080 o         1 MOL     -0.549742
     23 C9          8.1320    0.1890    1.9490 c3        1 MOL     -0.587320
     24 C10         8.4200   -0.5380    3.2800 c3        1 MOL      0.496809
     25 C11         8.5370    0.3930    4.4320 c3        1 MOL     -0.127256
     26 C12         8.7340   -0.3900    5.7410 c3        1 MOL      0.094722
     27 N3          8.6530    0.3590    7.0560 n4        1 MOL     -0.395188
     28 H8          9.4540   -0.9350   -0.2830 hn        1 MOL      0.284344
     29 H9          7.0490   -1.5550    1.2600 h1        1 MOL      0.139621
     30 H10         7.2910    0.8730    2.0630 hc        1 MOL      0.195697
     31 H11         9.0800    0.6700    1.6990 hc        1 MOL      0.195697
     32 H12         9.3040   -1.1710    3.2330 hc        1 MOL     -0.094886
     33 H13         7.5870   -1.2120    3.5150 hc        1 MOL     -0.094886
     34 H14         7.5920    0.9420    4.4940 hc        1 MOL      0.045903
     35 H15         9.3050    1.1270    4.2190 hc        1 MOL      0.045903
     36 H16         9.6940   -0.9130    5.6730 hx        1 MOL      0.064568
     37 H17         8.0470   -1.2340    5.8120 hx        1 MOL      0.064568
     38 H18         9.2530    1.1610    6.9210 hn        1 MOL      0.338549
     39 H19         7.7480    0.7030    7.3440 hn        1 MOL      0.338549
     40 H20         8.8570   -0.1280    7.9220 hn        1 MOL      0.338549
     41 N4          5.7130   -0.5560   -0.5160 n         1 MOL     -0.620011
     42 C13         4.8330    0.0430   -1.5460 c3        1 MOL      0.121987
     43 C14         3.4080    0.3260   -1.0740 c         1 MOL      0.635976
     44 O6          3.0060   -0.1000    0.0090 o         1 MOL     -0.565603
     45 C15         4.8840   -0.8640   -2.8060 c3        1 MOL      0.163109
     46 C16         4.5600   -2.3450   -2.5060 c         1 MOL      0.686487
     47 O7          3.4030   -2.7110   -2.6850 o         1 MOL     -0.754706
     48 O8          5.4170   -3.1220   -2.0010 o         1 MOL     -0.754706
     49 H21         5.3740   -1.3490    0.0150 hn        1 MOL      0.236230
     50 H22         5.2160    1.0600   -1.6560 h1        1 MOL      0.069479
     51 H23         5.8670   -0.8500   -3.2750 hc        1 MOL     -0.033205
     52 H24         4.2180   -0.5500   -3.6080 hc        1 MOL     -0.033205
     53 N5          2.5090    1.0040   -1.8370 n         1 MOL     -0.595022
     54 C17         2.8180    2.0410   -2.8970 c3        1 MOL      0.035460
     55 C18         3.2060    3.4330   -2.3860 c         1 MOL      0.587532
     56 O9          3.3770    3.6640   -1.1880 o         1 MOL     -0.568219
     57 H25         1.5440    1.0630   -1.5180 hn        1 MOL      0.381033
     58 H26         1.9940    2.1420   -3.6060 h1        1 MOL      0.047172
     59 H27         3.7130    1.6330   -3.3680 h1        1 MOL      0.047172
     60 N6          3.5350    4.3870   -3.2580 n         1 MOL     -0.314456
     61 C19         3.9950    5.7180   -2.8960 c3        1 MOL     -0.080014
     62 C20         2.9370    6.5340   -2.0370 c         1 MOL      0.345770
     63 O10         3.2750    7.4730   -1.2930 o         1 MOL     -0.496067
     64 C21         4.5770    6.4440   -4.1570 c3        1 MOL     -0.087848
     65 C22         3.4250    6.6240   -5.1770 c         1 MOL      0.636943
     66 O11         3.3840    5.8830   -6.1520 o         1 MOL     -0.690349
     67 O12         2.6350    7.6200   -4.9920 o         1 MOL     -0.690349
     68 H28         3.4590    4.1130   -4.2300 hn        1 MOL      0.206885
     69 H29         4.8660    5.6570   -2.2480 h1        1 MOL      0.089621
     70 H30         5.3700    5.8090   -4.5430 hc        1 MOL      0.031129
     71 H31         5.0210    7.3900   -3.8360 hc        1 MOL      0.031129
     72 N7          1.6380    6.2720   -2.1840 n         1 MOL     -0.061566
     73 C23         0.5300    6.8290   -1.4750 c3        1 MOL     -0.316873
     74 C24         0.2550    6.1950   -0.0980 c         1 MOL      0.560410
     75 O13        -0.5230    6.8500    0.5740 o         1 MOL     -0.589078
     76 H32         1.3210    5.5170   -2.7710 hn        1 MOL      0.178826
     77 H33        -0.3810    6.6350   -2.0440 h1        1 MOL      0.150169
     78 H34         0.7850    7.8740   -1.2930 h1        1 MOL      0.150169
     79 N8          0.8590    5.1070    0.2540 n         1 MOL     -0.081638
     80 C25         0.7690    4.3020    1.5360 c3        1 MOL     -0.125153
     81 C26         0.3250    2.8150    1.3440 c         1 MOL      0.451341
     82 O14         0.3820    2.2900    0.1970 o         1 MOL     -0.454517
     83 C27         2.0420    4.3850    2.3570 c3        1 MOL      0.412752
     84 C28         2.6860    5.7980    2.5050 c3        1 MOL     -0.361305
     85 O15         1.8070    3.8550    3.6240 oh        1 MOL     -0.639295
     86 H35         1.4720    4.7050   -0.4400 hn        1 MOL      0.059519
     87 H36        -0.0290    4.7900    2.0940 h1        1 MOL      0.042019
     88 H37         2.8240    3.7960    1.8870 h1        1 MOL      0.041068
     89 H38         1.2000    4.5230    3.9520 ho        1 MOL      0.368904
     90 H39         1.8380    6.4390    2.7500 hc        1 MOL      0.091640
     91 H40         3.4550    5.8150    3.2800 hc        1 MOL      0.091640
     92 H41         3.0730    6.2040    1.5700 hc        1 MOL      0.091640
     93 N9         -0.0810    2.0440    2.3770 n         1 MOL     -0.340853
     94 C29        -0.6600    0.6350    2.2220 c3        1 MOL     -0.406224
     95 C30        -1.9200    0.7620    1.3350 c         1 MOL      0.610391
     96 O16        -2.0210   -0.0210    0.3940 o         1 MOL     -0.507005
     97 C31        -0.8540   -0.1500    3.5470 c3        1 MOL      0.356899
     98 C32         0.3920   -0.0500    4.4210 c3        1 MOL     -0.059089
     99 C33        -1.0920   -1.6290    3.2220 c3        1 MOL     -0.342790
    100 C34         0.2390   -0.7340    5.7650 c3        1 MOL     -0.198750
    101 H42        -0.0820    2.5040    3.2700 hn        1 MOL      0.271289
    102 H43         0.0960    0.0390    1.7200 h1        1 MOL      0.181036
    103 H44        -1.6750    0.2330    4.1470 hc        1 MOL     -0.020872
    104 H45         0.5770    1.0070    4.5850 hc        1 MOL      0.038190
    105 H46         1.2450   -0.5010    3.9140 hc        1 MOL      0.038190
    106 H47        -1.6500   -2.1000    4.0390 hc        1 MOL      0.090538
    107 H48        -1.7040   -1.8490    2.3540 hc        1 MOL      0.090538
    108 H49        -0.1250   -2.1180    3.1210 hc        1 MOL      0.090538
    109 H50         1.1140   -0.4490    6.3550 hc        1 MOL      0.041669
    110 H51        -0.6750   -0.4310    6.2690 hc        1 MOL      0.041669
    111 H52         0.2540   -1.8220    5.6840 hc        1 MOL      0.041669
    112 N10        -2.8150    1.6790    1.6690 n         1 MOL     -0.425260
    113 C35        -3.9840    2.0650    0.7550 c3        1 MOL     -0.071174
    114 C36        -5.2140    2.4800    1.5550 c         1 MOL      0.637919
    115 O17        -5.1670    3.0540    2.6320 o         1 MOL     -0.528156
    116 C37        -3.6900    3.4120   -0.0330 c3        1 MOL      0.270597
    117 C38        -3.1770    4.5240    0.8320 c3        1 MOL     -0.241894
    118 O18        -2.7540    3.3090   -1.0960 oh        1 MOL     -0.549031
    119 H53        -2.7610    2.1950    2.5260 hn        1 MOL      0.265590
    120 H54        -4.1430    1.2760    0.0180 h1        1 MOL      0.102453
    121 H55        -4.6050    3.7500   -0.5160 h1        1 MOL     -0.011123
    122 H56        -3.2260    3.1430   -1.9220 ho        1 MOL      0.383899
    123 H57        -3.8470    4.9940    1.5410 hc        1 MOL      0.072677
    124 H58        -2.2740    4.1270    1.3040 hc        1 MOL      0.072677
    125 H59        -2.8820    5.3880    0.2340 hc        1 MOL      0.072677
    126 N11        -6.3870    2.0650    1.0600 n         1 MOL     -0.624727
    127 C39        -7.7310    2.2030    1.7280 c3        1 MOL      0.021378
    128 C40        -8.5840    0.9080    1.6700 c         1 MOL      0.696944
    129 O19        -8.9540    0.4940    2.7210 o         1 MOL     -0.556040
    130 C41        -8.4620    3.4280    1.2490 c3        1 MOL      0.294283
    131 C42        -9.7700    3.7140    1.9200 c3        1 MOL     -0.387374
    132 O20        -8.7540    3.3740   -0.0750 oh        1 MOL     -0.594113
    133 H60        -6.3240    1.7840    0.0910 hn        1 MOL      0.289205
    134 H61        -7.4910    2.3860    2.7730 h1        1 MOL      0.110531
    135 H62        -7.7600    4.2170    1.5460 h1        1 MOL      0.033799
    136 H63        -8.1580    3.9690   -0.5410 ho        1 MOL      0.389478
    137 H64        -9.5140    3.8340    2.9660 hc        1 MOL      0.101968
    138 H65       -10.2200    4.6090    1.4950 hc        1 MOL      0.101968
    139 H66       -10.4630    2.8890    1.7270 hc        1 MOL      0.101968
    140 N12        -8.6840    0.2510    0.4600 n         1 MOL     -0.510571
    141 C43        -9.4970   -0.9510    0.2800 c3        1 MOL     -0.075786
    142 C44        -8.9850   -1.8010   -0.8730 c         1 MOL      0.545654
    143 O21        -8.5360   -1.2060   -1.8740 o         1 MOL     -0.512027
    144 C45       -10.9290   -0.4450   -0.0140 c3        1 MOL     -0.063400
    145 C46       -12.0030   -1.4790    0.2830 c3        1 MOL     -0.016251
    146 C47       -13.3120   -1.1450   -0.2620 c3        1 MOL     -0.087262
    147 C48       -14.4260   -2.1100    0.0680 c3        1 MOL      0.237486
    148 N13       -15.6350   -1.4690   -0.2550 n4        1 MOL     -0.409360
    149 H67        -8.1690    0.5330   -0.3600 hn        1 MOL      0.292292
    150 H68        -9.3850   -1.4930    1.2120 h1        1 MOL      0.083861
    151 H69       -11.0270   -0.1090   -1.0430 hc        1 MOL      0.072241
    152 H70       -11.1970    0.4310    0.5650 hc        1 MOL      0.072241
    153 H71       -12.1160   -1.5930    1.3600 hc        1 MOL      0.003073
    154 H72       -11.6700   -2.3930   -0.2130 hc        1 MOL      0.003073
    155 H73       -13.2850   -1.0910   -1.3470 hc        1 MOL      0.030501
    156 H74       -13.5920   -0.1810    0.1440 hc        1 MOL      0.030501
    157 H75       -14.3730   -2.4920    1.0930 hx        1 MOL      0.047363
    158 H76       -14.2930   -3.0750   -0.4400 hx        1 MOL      0.047363
    159 H77       -15.8280   -1.3590   -1.2400 hn        1 MOL      0.296927
    160 H78       -16.4310   -1.9660    0.1220 hn        1 MOL      0.296927
    161 H79       -15.6920   -0.5210    0.0900 hn        1 MOL      0.296927
    162 N14        -9.0930   -3.1360   -0.7890 n         1 MOL     -0.334688
    163 C49        -8.5980   -4.1280   -1.7650 c3        1 MOL      0.239440
    164 C50        -7.0730   -4.1660   -2.0550 c         1 MOL      0.275053
    165 O22        -6.6790   -4.2930   -3.1940 o         1 MOL     -0.477020
    166 C51        -9.1270   -5.5070   -1.5670 c3        1 MOL     -0.186562
    167 C52       -10.6290   -5.5180   -1.5460 c3        1 MOL     -0.214155
    168 C53       -11.1700   -6.9030   -1.1360 c         1 MOL      0.612648
    169 O23       -11.2470   -7.8590   -1.9990 o         1 MOL     -0.648294
    170 O24       -11.4220   -7.1210    0.0560 o         1 MOL     -0.648294
    171 H80        -9.3840   -3.4630    0.1250 hn        1 MOL      0.267579
    172 H81        -9.0520   -3.7870   -2.6900 h1        1 MOL      0.048031
    173 H82        -8.8380   -5.8810   -0.5770 hc        1 MOL      0.114329
    174 H83        -8.9520   -6.1600   -2.4180 hc        1 MOL      0.114329
    175 H84       -10.9070   -5.2780   -2.5750 hc        1 MOL      0.029459
    176 H85       -11.0180   -4.8140   -0.8070 hc        1 MOL      0.029459
    177 N15        -6.1120   -4.2240   -1.0670 n         1 MOL     -0.337921
    178 C54        -6.2730   -4.2000    0.3800 c3        1 MOL     -0.000678
    179 H86        -5.7560   -3.3330    0.7890 h1        1 MOL      0.027655
    180 H87        -7.3330   -4.1400    0.6270 h1        1 MOL      0.027655
    181 H88        -5.8510   -5.1090    0.8090 h1        1 MOL      0.027655
    182 H89        -5.1680   -4.2940   -1.4050 hn        1 MOL      0.304861
    183 Ca1         5.9010   -5.2040   -0.6990 Ca        1 MOL      1.715216
    184 O25         3.3200   -4.8030   -0.6280 oh        1 MOL     -0.881078
    185 H90         3.2060   -4.2340   -1.3890 ho        1 MOL      0.443439
    186 H91         2.5390   -4.6390   -0.0910 ho        1 MOL      0.443439
    187 O26         5.4080   -4.1410    1.6230 oh        1 MOL     -0.881078
    188 H92         4.9440   -3.3110    1.7810 ho        1 MOL      0.443439
    189 H93         6.2540   -4.0260    2.0640 ho        1 MOL      0.443439
@<TRIPOS>BOND
     1    1    2 1   
     2    1    4 1   
     3    1    5 1   
     4    1    6 1   
     5    2    3 2   
     6    2    7 1   
     7    7    8 1   
     8    7   15 1   
     9    8    9 1   
    10    8   11 1   
    11    8   16 1   
    12    9   10 2   
    13    9   19 1   
    14   11   12 1   
    15   11   17 1   
    16   11   18 1   
    17   12   13 1   
    18   12   14 1   
    19   19   20 1   
    20   19   28 1   
    21   20   21 1   
    22   20   23 1   
    23   20   29 1   
    24   21   22 2   
    25   21   41 1   
    26   23   24 1   
    27   23   30 1   
    28   23   31 1   
    29   24   25 1   
    30   24   32 1   
    31   24   33 1   
    32   25   26 1   
    33   25   34 1   
    34   25   35 1   
    35   26   27 1   
    36   26   36 1   
    37   26   37 1   
    38   27   38 1   
    39   27   39 1   
    40   27   40 1   
    41   41   42 1   
    42   41   49 1   
    43   42   43 1   
    44   42   45 1   
    45   42   50 1   
    46   43   44 2   
    47   43   53 1   
    48   45   46 1   
    49   45   51 1   
    50   45   52 1   
    51   46   47 1   
    52   46   48 1   
    53   53   54 1   
    54   53   57 1   
    55   54   55 1   
    56   54   58 1   
    57   54   59 1   
    58   55   56 2   
    59   55   60 1   
    60   60   61 1   
    61   60   68 1   
    62   61   62 1   
    63   61   64 1   
    64   61   69 1   
    65   62   63 2   
    66   62   72 1   
    67   64   65 1   
    68   64   70 1   
    69   64   71 1   
    70   65   66 1   
    71   65   67 1   
    72   72   73 1   
    73   72   76 1   
    74   73   74 1   
    75   73   77 1   
    76   73   78 1   
    77   74   75 2   
    78   74   79 1   
    79   79   80 1   
    80   79   86 1   
    81   80   81 1   
    82   80   83 1   
    83   80   87 1   
    84   81   82 2   
    85   81   93 1   
    86   83   84 1   
    87   83   85 1   
    88   83   88 1   
    89   84   90 1   
    90   84   91 1   
    91   84   92 1   
    92   85   89 1   
    93   93   94 1   
    94   93  101 1   
    95   94   95 1   
    96   94   97 1   
    97   94  102 1   
    98   95   96 2   
    99   95  112 1   
   100   97   98 1   
   101   97   99 1   
   102   97  103 1   
   103   98  100 1   
   104   98  104 1   
   105   98  105 1   
   106   99  106 1   
   107   99  107 1   
   108   99  108 1   
   109  100  109 1   
   110  100  110 1   
   111  100  111 1   
   112  112  113 1   
   113  112  119 1   
   114  113  114 1   
   115  113  116 1   
   116  113  120 1   
   117  114  115 2   
   118  114  126 1   
   119  116  117 1   
   120  116  118 1   
   121  116  121 1   
   122  117  123 1   
   123  117  124 1   
   124  117  125 1   
   125  118  122 1   
   126  126  127 1   
   127  126  133 1   
   128  127  128 1   
   129  127  130 1   
   130  127  134 1   
   131  128  129 2   
   132  128  140 1   
   133  130  131 1   
   134  130  132 1   
   135  130  135 1   
   136  131  137 1   
   137  131  138 1   
   138  131  139 1   
   139  132  136 1   
   140  140  141 1   
   141  140  149 1   
   142  141  142 1   
   143  141  144 1   
   144  141  150 1   
   145  142  143 2   
   146  142  162 1   
   147  144  145 1   
   148  144  151 1   
   149  144  152 1   
   150  145  146 1   
   151  145  153 1   
   152  145  154 1   
   153  146  147 1   
   154  146  155 1   
   155  146  156 1   
   156  147  148 1   
   157  147  157 1   
   158  147  158 1   
   159  148  159 1   
   160  148  160 1   
   161  148  161 1   
   162  162  163 1   
   163  162  171 1   
   164  163  164 1   
   165  163  166 1   
   166  163  172 1   
   167  164  165 2   
   168  164  177 1   
   169  166  167 1   
   170  166  173 1   
   171  166  174 1   
   172  167  168 1   
   173  167  175 1   
   174  167  176 1   
   175  168  169 1   
   176  168  170 1   
   177  177  178 1   
   178  177  182 1   
   179  178  179 1   
   180  178  180 1   
   181  178  181 1   
   182  184  185 1   
   183  184  186 1   
   184  187  188 1   
   185  187  189 1   
@<TRIPOS>SUBSTRUCTURE
     1 MOL         1 TEMP              0 ****  ****    0 ROOT
