@<TRIPOS>MOLECULE
MOL
  182   178     1     0     0
SMALL
resp


@<TRIPOS>ATOM
      1 C1          0.0320   -3.4940    6.3320 c3        1 MOL     -0.312461
      2 C2          0.1760   -3.3740    4.7870 c         1 MOL      0.753079
      3 O1         -0.8040   -3.3700    4.0440 o         1 MOL     -0.615397
      4 H1         -0.4960   -2.6220    6.7170 hc        1 MOL      0.085879
      5 H2         -0.5310   -4.3960    6.5760 hc        1 MOL      0.085879
      6 H3          1.0220   -3.5500    6.7870 hc        1 MOL      0.085879
      7 N1          1.4200   -3.2240    4.3430 n         1 MOL     -0.541243
      8 C3          1.7640   -2.9820    2.9110 c3        1 MOL     -0.075205
      9 C4          1.6160   -4.3020    2.1000 c         1 MOL      0.736834
     10 O2          1.9780   -5.2610    2.7370 o         1 MOL     -0.579117
     11 C5          3.1710   -2.5540    2.8780 c3        1 MOL     -0.268384
     12 C6          3.3340   -1.7310    1.6220 c         1 MOL      0.698310
     13 O3          4.0610   -0.7280    1.6490 o         1 MOL     -0.701725
     14 O4          2.8690   -2.1750    0.5160 o         1 MOL     -0.701725
     15 H4          2.1870   -3.2890    4.9960 hn        1 MOL      0.332054
     16 H5          1.0750   -2.2090    2.5600 h1        1 MOL     -0.043050
     17 H6          3.8440   -3.4090    2.8770 hc        1 MOL      0.112253
     18 H7          3.3290   -1.8720    3.7230 hc        1 MOL      0.112253
     19 N2          1.2620   -4.3960    0.8230 n         1 MOL     -0.442754
     20 C7          1.1690   -5.5930   -0.0620 c3        1 MOL     -0.099125
     21 C8          2.2880   -5.6500   -1.1130 c         1 MOL      0.528494
     22 O5          2.2640   -6.5430   -1.9450 o         1 MOL     -0.549935
     23 C9         -0.3090   -5.8490   -0.6120 c3        1 MOL      0.063150
     24 C10        -0.6720   -4.7430   -1.6640 c3        1 MOL      0.298866
     25 C11        -2.0100   -4.9170   -2.3740 c3        1 MOL     -0.009457
     26 C12        -2.1500   -3.6190   -3.2130 c3        1 MOL      0.186524
     27 N3         -3.4410   -3.4230   -3.8460 n4        1 MOL     -0.301237
     28 H8          1.0750   -3.4770    0.4460 hn        1 MOL      0.198606
     29 H9          1.3400   -6.4060    0.6480 h1        1 MOL      0.133027
     30 H10        -0.9910   -5.7390    0.2310 hc        1 MOL     -0.015896
     31 H11        -0.4950   -6.8030   -1.1030 hc        1 MOL     -0.015896
     32 H12         0.1650   -4.6180   -2.3640 hc        1 MOL     -0.055767
     33 H13        -0.7380   -3.8180   -1.0910 hc        1 MOL     -0.055767
     34 H14        -2.7290   -4.8490   -1.5610 hc        1 MOL     -0.023538
     35 H15        -2.0080   -5.8100   -2.9950 hc        1 MOL     -0.023538
     36 H16        -1.3900   -3.5650   -3.9860 hx        1 MOL      0.008226
     37 H17        -1.9690   -2.8350   -2.4860 hx        1 MOL      0.008226
     38 H18        -3.6080   -4.0540   -4.6250 hn        1 MOL      0.263544
     39 H19        -4.1510   -3.4800   -3.1290 hn        1 MOL      0.263544
     40 H20        -3.5310   -2.5010   -4.2440 hn        1 MOL      0.263544
     41 N4          3.1730   -4.6800   -1.0900 n         1 MOL     -0.360761
     42 C13         4.3840   -4.5400   -1.9350 c3        1 MOL      0.128948
     43 C14         5.6600   -4.2100   -1.1990 c         1 MOL      0.389244
     44 O6          6.7670   -4.5460   -1.5730 o         1 MOL     -0.511631
     45 C15         4.0810   -3.5780   -3.0860 c3        1 MOL     -0.494609
     46 C16         3.7710   -2.1300   -2.5970 c         1 MOL      0.850073
     47 O7          2.7030   -1.5730   -2.9270 o         1 MOL     -0.794321
     48 O8          4.4950   -1.5760   -1.7780 o         1 MOL     -0.794321
     49 H21         2.9380   -3.8400   -0.5980 hn        1 MOL      0.313365
     50 H22         4.5090   -5.5490   -2.3510 h1        1 MOL      0.097514
     51 H23         3.3640   -4.0020   -3.7910 hc        1 MOL      0.144855
     52 H24         5.0130   -3.4650   -3.6530 hc        1 MOL      0.144855
     53 N5          5.4670   -3.6040    0.0200 n         1 MOL     -0.151745
     54 C17         6.4450   -3.2750    1.0140 c3        1 MOL     -0.028317
     55 C18         7.2180   -1.9510    0.7890 c         1 MOL      0.461914
     56 O9          8.3050   -1.7300    1.3280 o         1 MOL     -0.551287
     57 H25         4.4880   -3.4700    0.2440 hn        1 MOL      0.018461
     58 H26         7.2530   -4.0070    1.0620 h1        1 MOL      0.076515
     59 H27         6.0350   -3.3690    2.0160 h1        1 MOL      0.076515
     60 N6          6.6970   -1.0980   -0.1500 n         1 MOL     -0.222134
     61 C19         7.3370    0.1330   -0.7540 c3        1 MOL      0.087208
     62 C20         6.2690    1.2350   -0.8430 c         1 MOL      0.313287
     63 O10         5.1040    0.9170   -0.5880 o         1 MOL     -0.335211
     64 C21         7.7810   -0.3710   -2.0960 c3        1 MOL     -0.240494
     65 C22         8.5950    0.6940   -2.8690 c         1 MOL      0.667967
     66 N7          8.4190    0.7710   -4.1890 n         1 MOL     -0.804418
     67 O11         9.4700    1.3390   -2.3640 o         1 MOL     -0.543769
     68 H28         5.9370   -1.4630   -0.7060 hn        1 MOL      0.267840
     69 H29         8.2370    0.5210   -0.2670 h1        1 MOL      0.071699
     70 H30         7.0390   -0.7470   -2.8050 hc        1 MOL      0.091163
     71 H31         8.4420   -1.2220   -1.9540 hc        1 MOL      0.091163
     72 H32         7.8330    0.1360   -4.7180 hn        1 MOL      0.357760
     73 H33         8.8840    1.5200   -4.6770 hn        1 MOL      0.357760
     74 N8          6.6520    2.4640   -1.2140 n         1 MOL     -0.313270
     75 C23         5.7660    3.5740   -1.3950 c3        1 MOL     -0.087447
     76 C24         4.8780    3.9080   -0.1430 c         1 MOL      0.623316
     77 O12         5.3350    3.8000    1.0090 o         1 MOL     -0.494438
     78 H34         7.6420    2.6160   -1.3960 hn        1 MOL      0.278400
     79 H35         5.1510    3.3710   -2.2740 h1        1 MOL      0.049262
     80 H36         6.3510    4.4910   -1.5230 h1        1 MOL      0.049262
     81 N9          3.5970    4.3300   -0.3500 n         1 MOL     -0.706734
     82 C25         2.6440    4.4830    0.6910 c3        1 MOL      0.509163
     83 C26         2.1380    3.1610    1.2410 c         1 MOL      0.490936
     84 O13         2.5440    2.1380    0.7840 o         1 MOL     -0.511290
     85 C27         1.6040    5.4170    0.1640 c3        1 MOL     -0.098655
     86 C28         2.0130    6.7970   -0.1590 ca        1 MOL     -0.010318
     87 C29         2.1540    7.2480   -1.4640 ca        1 MOL     -0.084353
     88 C30         2.4100    7.6170    0.9050 ca        1 MOL     -0.084353
     89 C31         2.6110    8.5470   -1.7810 ca        1 MOL     -0.338554
     90 C32         2.8580    8.9350    0.6970 ca        1 MOL     -0.338554
     91 C33         2.9650    9.4230   -0.6390 ca        1 MOL      0.389097
     92 O14         3.4860   10.6590   -0.8640 oh        1 MOL     -0.458608
     93 H37         3.2740    4.3950   -1.2970 hn        1 MOL      0.269059
     94 H38         3.2370    4.9180    1.4900 h1        1 MOL      0.011221
     95 H39         0.8270    5.3890    0.9260 hc        1 MOL      0.006099
     96 H40         1.1240    4.9130   -0.6780 hc        1 MOL      0.006099
     97 H41         1.8930    6.5860   -2.2690 ha        1 MOL      0.111672
     98 H42         2.3930    7.3030    1.9340 ha        1 MOL      0.111672
     99 H43         2.6550    8.9060   -2.7990 ha        1 MOL      0.183940
    100 H44         3.1590    9.5540    1.5240 ha        1 MOL      0.183940
    101 H45         3.6870   10.8190   -1.7920 ho        1 MOL      0.355094
    102 N10         1.2350    3.2200    2.2480 n         1 MOL     -0.785027
    103 C34         0.6650    1.9480    2.9400 c3        1 MOL      0.335003
    104 C35        -0.0210    0.9090    1.9890 c         1 MOL      0.212088
    105 O15         0.6820    0.3080    1.1590 o         1 MOL     -0.292662
    106 C36         1.6060    1.3590    3.9290 c3        1 MOL      0.163713
    107 C37         0.7880    0.3800    4.8220 c3        1 MOL      0.070469
    108 C38         2.4080    2.4220    4.7310 c3        1 MOL     -0.303442
    109 C39        -0.2150    1.0960    5.8230 c3        1 MOL     -0.199300
    110 H46         1.2000    4.0890    2.7540 hn        1 MOL      0.332361
    111 H47        -0.1240    2.3590    3.5620 h1        1 MOL      0.050429
    112 H48         2.3840    0.7700    3.4330 hc        1 MOL      0.033238
    113 H49         1.3670   -0.2280    5.5190 hc        1 MOL      0.002648
    114 H50         0.2100   -0.3230    4.2100 hc        1 MOL      0.002648
    115 H51         3.0750    1.9130    5.4250 hc        1 MOL      0.076272
    116 H52         2.9980    2.9770    4.0010 hc        1 MOL      0.076272
    117 H53         1.8340    3.1350    5.3090 hc        1 MOL      0.076272
    118 H54        -0.6620    2.0060    5.4060 hc        1 MOL      0.045306
    119 H55        -0.9660    0.3390    6.0610 hc        1 MOL      0.045306
    120 H56         0.2850    1.4110    6.7400 hc        1 MOL      0.045306
    121 N11        -1.3310    0.7120    2.0410 n         1 MOL     -0.326276
    122 C40        -2.1030   -0.0480    1.0320 c3        1 MOL      0.065292
    123 C41        -3.5540    0.5140    0.7740 c         1 MOL      0.518112
    124 O16        -4.2370    1.0460    1.6220 o         1 MOL     -0.478486
    125 C42        -2.3390   -1.5020    1.5180 c3        1 MOL     -0.026903
    126 O17        -1.1650   -2.2750    1.3890 oh        1 MOL     -0.466511
    127 H57        -1.8430    1.2690    2.7140 hn        1 MOL      0.226811
    128 H58        -1.5110    0.0410    0.1210 h1        1 MOL      0.036728
    129 H59        -3.1930   -1.9590    1.0260 h1        1 MOL      0.094639
    130 H60        -2.6100   -1.4240    2.5640 h1        1 MOL      0.094639
    131 H61        -1.2650   -2.9710    2.0320 ho        1 MOL      0.372982
    132 N12        -3.9390    0.3260   -0.4970 n         1 MOL     -0.671086
    133 C43        -5.3670    0.4900   -0.9170 c3        1 MOL      0.537748
    134 C44        -5.5530   -0.1680   -2.2290 c         1 MOL      0.522673
    135 O18        -4.6330   -0.1910   -3.0200 o         1 MOL     -0.557938
    136 C45        -5.7670    1.9540   -0.8150 c3        1 MOL     -0.455482
    137 H62        -3.2420    0.0510   -1.1780 hn        1 MOL      0.238893
    138 H63        -5.9690   -0.0180   -0.1520 h1        1 MOL     -0.029402
    139 H64        -5.0670    2.5000   -1.4550 hc        1 MOL      0.133357
    140 H65        -6.8260    2.0700   -1.0270 hc        1 MOL      0.133357
    141 H66        -5.7840    2.1390    0.2580 hc        1 MOL      0.133357
    142 N13        -6.7660   -0.6800   -2.4600 n         1 MOL     -0.713585
    143 C46        -8.0910   -0.6180   -1.7110 c3        1 MOL      0.267878
    144 C47        -9.1890    0.1880   -2.4270 c         1 MOL      0.543299
    145 O19        -9.1700    0.2010   -3.6290 o         1 MOL     -0.539574
    146 C48        -8.4890   -2.0610   -1.3810 c3        1 MOL     -0.390334
    147 H67        -6.8640   -1.1300   -3.3640 hn        1 MOL      0.353083
    148 H68        -7.9730   -0.0690   -0.7720 h1        1 MOL      0.045969
    149 H69        -8.4430   -2.7250   -2.2510 hc        1 MOL      0.119208
    150 H70        -7.8480   -2.5540   -0.6550 hc        1 MOL      0.119208
    151 H71        -9.4990   -2.1280   -0.9740 hc        1 MOL      0.119208
    152 N14       -10.1280    0.8680   -1.7430 n         1 MOL     -0.515329
    153 C49       -10.4250    0.9060   -0.2730 c3        1 MOL      0.021760
    154 C50        -9.6870    2.0020    0.4820 c         1 MOL      0.414702
    155 O20        -9.2920    1.8380    1.6270 o         1 MOL     -0.502574
    156 C51       -11.9380    0.8580    0.0560 c3        1 MOL      0.114311
    157 C52       -12.5890   -0.4990   -0.2670 c3        1 MOL     -0.252529
    158 C53       -14.0310   -0.5560    0.2280 c         1 MOL      0.681126
    159 O21       -15.0260   -0.3280   -0.5950 o         1 MOL     -0.649699
    160 O22       -14.2530   -1.0080    1.3390 o         1 MOL     -0.649699
    161 H72       -10.7210    1.4300   -2.3410 hn        1 MOL      0.342001
    162 H73        -9.9930    0.0240    0.2030 h1        1 MOL      0.055295
    163 H74       -12.5040    1.5720   -0.5450 hc        1 MOL      0.006486
    164 H75       -12.1230    1.0800    1.1130 hc        1 MOL      0.006486
    165 H76       -12.0100   -1.1980    0.3310 hc        1 MOL      0.050677
    166 H77       -12.3990   -0.7750   -1.3070 hc        1 MOL      0.050677
    167 N15        -9.5210    3.1040   -0.1520 n         1 MOL     -0.238951
    168 C54        -8.7440    4.2430    0.4090 c3        1 MOL     -0.451840
    169 H78        -9.2860    4.6710    1.2520 h1        1 MOL      0.179036
    170 H79        -7.7710    3.8880    0.7470 h1        1 MOL      0.179036
    171 H80        -8.6080    5.0040   -0.3580 h1        1 MOL      0.179036
    172 H81        -9.8020    3.1270   -1.1190 hn        1 MOL      0.222359
    173 Ca1         2.6350   -0.0340   -0.7870 Ca        1 MOL      1.725182
    174 O23         0.1370   -1.4540   -0.8940 oh        1 MOL     -0.851121
    175 H82        -0.6340   -1.1070   -1.3520 ho        1 MOL      0.419058
    176 H83        -0.1820   -1.6270   -0.0030 ho        1 MOL      0.419058
    177 O24         3.2850    1.7870   -2.7200 oh        1 MOL     -0.851121
    178 H84         4.1730    1.8370   -3.0800 ho        1 MOL      0.419058
    179 H85         2.8370    2.5450   -3.0860 ho        1 MOL      0.419058
    180 O25         0.5760    1.3140   -1.7220 oh        1 MOL     -0.851121
    181 H86        -0.3290    1.4250   -1.4320 ho        1 MOL      0.419058
    182 H87         0.6700    1.9120   -2.4630 ho        1 MOL      0.419058
@<TRIPOS>BOND
     1    1    2 1   
     2    1    4 1   
     3    1    5 1   
     4    1    6 1   
     5    2    3 2   
     6    2    7 1   
     7    7    8 1   
     8    7   15 1   
     9    8    9 1   
    10    8   11 1   
    11    8   16 1   
    12    9   10 2   
    13    9   19 1   
    14   11   12 1   
    15   11   17 1   
    16   11   18 1   
    17   12   13 1   
    18   12   14 1   
    19   19   20 1   
    20   19   28 1   
    21   20   21 1   
    22   20   23 1   
    23   20   29 1   
    24   21   22 2   
    25   21   41 1   
    26   23   24 1   
    27   23   30 1   
    28   23   31 1   
    29   24   25 1   
    30   24   32 1   
    31   24   33 1   
    32   25   26 1   
    33   25   34 1   
    34   25   35 1   
    35   26   27 1   
    36   26   36 1   
    37   26   37 1   
    38   27   38 1   
    39   27   39 1   
    40   27   40 1   
    41   41   42 1   
    42   41   49 1   
    43   42   43 1   
    44   42   45 1   
    45   42   50 1   
    46   43   44 2   
    47   43   53 1   
    48   45   46 1   
    49   45   51 1   
    50   45   52 1   
    51   46   47 1   
    52   46   48 1   
    53   53   54 1   
    54   53   57 1   
    55   54   55 1   
    56   54   58 1   
    57   54   59 1   
    58   55   56 2   
    59   55   60 1   
    60   60   61 1   
    61   60   68 1   
    62   61   62 1   
    63   61   64 1   
    64   61   69 1   
    65   62   63 2   
    66   62   74 1   
    67   64   65 1   
    68   64   70 1   
    69   64   71 1   
    70   65   66 1   
    71   65   67 2   
    72   66   72 1   
    73   66   73 1   
    74   74   75 1   
    75   74   78 1   
    76   75   76 1   
    77   75   79 1   
    78   75   80 1   
    79   76   77 2   
    80   76   81 1   
    81   81   82 1   
    82   81   93 1   
    83   82   83 1   
    84   82   85 1   
    85   82   94 1   
    86   83   84 2   
    87   83  102 1   
    88   85   86 1   
    89   85   95 1   
    90   85   96 1   
    91   86   87 ar  
    92   86   88 ar  
    93   87   89 ar  
    94   87   97 1   
    95   88   90 ar  
    96   88   98 1   
    97   89   91 ar  
    98   89   99 1   
    99   90   91 ar  
   100   90  100 1   
   101   91   92 1   
   102   92  101 1   
   103  102  103 1   
   104  102  110 1   
   105  103  104 1   
   106  103  106 1   
   107  103  111 1   
   108  104  105 2   
   109  104  121 1   
   110  106  107 1   
   111  106  108 1   
   112  106  112 1   
   113  107  109 1   
   114  107  113 1   
   115  107  114 1   
   116  108  115 1   
   117  108  116 1   
   118  108  117 1   
   119  109  118 1   
   120  109  119 1   
   121  109  120 1   
   122  121  122 1   
   123  121  127 1   
   124  122  123 1   
   125  122  125 1   
   126  122  128 1   
   127  123  124 2   
   128  123  132 1   
   129  125  126 1   
   130  125  129 1   
   131  125  130 1   
   132  126  131 1   
   133  132  133 1   
   134  132  137 1   
   135  133  134 1   
   136  133  136 1   
   137  133  138 1   
   138  134  135 2   
   139  134  142 1   
   140  136  139 1   
   141  136  140 1   
   142  136  141 1   
   143  142  143 1   
   144  142  147 1   
   145  143  144 1   
   146  143  146 1   
   147  143  148 1   
   148  144  145 2   
   149  144  152 1   
   150  146  149 1   
   151  146  150 1   
   152  146  151 1   
   153  152  153 1   
   154  152  161 1   
   155  153  154 1   
   156  153  156 1   
   157  153  162 1   
   158  154  155 2   
   159  154  167 1   
   160  156  157 1   
   161  156  163 1   
   162  156  164 1   
   163  157  158 1   
   164  157  165 1   
   165  157  166 1   
   166  158  159 1   
   167  158  160 1   
   168  167  168 1   
   169  167  172 1   
   170  168  169 1   
   171  168  170 1   
   172  168  171 1   
   173  174  175 1   
   174  174  176 1   
   175  177  178 1   
   176  177  179 1   
   177  180  181 1   
   178  180  182 1   
@<TRIPOS>SUBSTRUCTURE
     1 MOL         1 TEMP              0 ****  ****    0 ROOT
