@<TRIPOS>MOLECULE
MOL
  201   193     1     0     0
SMALL
resp


@<TRIPOS>ATOM
      1 C1          7.8570    7.0780   -5.1240 c3        1 MOL     -0.374952
      2 C2          7.9750    6.5490   -3.6540 c         1 MOL      0.703468
      3 O1          9.0800    6.3680   -3.1800 o         1 MOL     -0.547781
      4 H1          8.8550    7.2610   -5.5240 hc        1 MOL      0.092284
      5 H2          7.3500    6.3340   -5.7390 hc        1 MOL      0.092284
      6 H3          7.2870    8.0060   -5.1320 hc        1 MOL      0.092284
      7 N1          6.8500    6.4500   -2.9510 n         1 MOL     -0.654679
      8 C3          6.7280    5.7210   -1.6930 c3        1 MOL      0.348923
      9 C4          5.6230    4.5330   -1.8570 c         1 MOL      0.345169
     10 O2          4.7830    4.5670   -2.7330 o         1 MOL     -0.518094
     11 C5          6.4010    6.5690   -0.4360 c3        1 MOL     -0.094252
     12 C6          7.4190    7.6760   -0.1580 c         1 MOL      0.646077
     13 O3          8.3350    7.5970    0.6880 o         1 MOL     -0.602993
     14 O4          7.3610    8.7130   -0.8510 o         1 MOL     -0.602993
     15 H4          5.9800    6.8650   -3.2600 hn        1 MOL      0.329761
     16 H5          7.6470    5.1740   -1.4290 h1        1 MOL     -0.042542
     17 H6          6.2590    5.8830    0.4070 hc        1 MOL      0.002941
     18 H7          5.4520    7.0990   -0.5570 hc        1 MOL      0.002941
     19 N2          5.7070    3.6100   -0.9340 n         1 MOL     -0.282429
     20 C7          4.8400    2.4370   -0.7710 c3        1 MOL      0.086220
     21 C8          3.7470    2.7490    0.2060 c         1 MOL      0.526295
     22 O5          3.9020    3.6680    0.9940 o         1 MOL     -0.501146
     23 C9          5.7390    1.2750   -0.2760 c3        1 MOL     -0.168896
     24 C10         6.5600    0.4880   -1.3770 c3        1 MOL     -0.199842
     25 C11         7.0460   -0.8460   -0.7460 c3        1 MOL      0.264219
     26 C12         8.1670   -1.4350   -1.5110 c3        1 MOL     -0.041384
     27 N3          9.0080   -2.1920   -0.5630 n4        1 MOL     -0.308008
     28 H8          6.5380    3.6710   -0.3520 hn        1 MOL      0.243667
     29 H9          4.3190    2.1170   -1.6790 h1        1 MOL      0.055507
     30 H10         5.0800    0.5840    0.2390 hc        1 MOL      0.072926
     31 H11         6.4430    1.5750    0.4900 hc        1 MOL      0.072926
     32 H12         7.4270    0.9930   -1.8210 hc        1 MOL      0.061826
     33 H13         5.8960    0.2340   -2.1990 hc        1 MOL      0.061826
     34 H14         6.2770   -1.6140   -0.6370 hc        1 MOL     -0.010669
     35 H15         7.3240   -0.6250    0.2890 hc        1 MOL     -0.010669
     36 H16         8.7820   -0.6690   -1.9790 hx        1 MOL      0.077349
     37 H17         7.6790   -2.0760   -2.2500 hx        1 MOL      0.077349
     38 H18         8.5060   -2.9910   -0.2050 hn        1 MOL      0.315705
     39 H19         9.8220   -2.5360   -1.0570 hn        1 MOL      0.315705
     40 H20         9.2290   -1.5820    0.2030 hn        1 MOL      0.315705
     41 N4          2.6160    2.0590    0.0080 n         1 MOL     -0.386426
     42 C13         1.4020    2.2880    0.7820 c3        1 MOL     -0.172210
     43 C14         0.4360    1.1440    0.5330 c         1 MOL      0.640481
     44 O6         -0.5060    1.2500   -0.2150 o         1 MOL     -0.513011
     45 C15         0.7420    3.5770    0.1890 c3        1 MOL     -0.086987
     46 C16        -0.5270    3.9440    0.9040 c         1 MOL      0.611036
     47 O7         -1.5020    4.4520    0.2460 o         1 MOL     -0.693346
     48 O8         -0.5440    3.9830    2.1860 o         1 MOL     -0.693346
     49 H21         2.6560    1.2930   -0.6410 hn        1 MOL      0.305604
     50 H22         1.5690    2.3950    1.8620 h1        1 MOL      0.116795
     51 H23         0.5980    3.4500   -0.8820 hc        1 MOL      0.081592
     52 H24         1.4800    4.3670    0.3530 hc        1 MOL      0.081592
     53 N5          0.4550   -0.0480    1.1360 n         1 MOL     -0.404268
     54 C17         1.1300   -0.5280    2.2980 c3        1 MOL     -0.039176
     55 C18         2.5990   -0.8100    2.0210 c         1 MOL      0.629263
     56 O9          2.9630   -0.7830    0.8000 o         1 MOL     -0.588119
     57 H25        -0.2050   -0.7010    0.7440 hn        1 MOL      0.253142
     58 H26         0.5550   -1.3850    2.6340 h1        1 MOL      0.014883
     59 H27         1.0380    0.3170    2.9890 h1        1 MOL      0.014883
     60 N6          3.4510   -1.1600    3.0020 n         1 MOL     -0.229937
     61 C19         4.6810   -1.9190    2.7480 c3        1 MOL     -0.357800
     62 C20         4.7280   -3.4570    2.9480 c         1 MOL      0.787396
     63 O10         5.7120   -4.1790    2.7260 o         1 MOL     -0.610005
     64 C21         5.7370   -1.3020    3.5660 c3        1 MOL     -0.166088
     65 C22         5.4450   -0.9680    5.0590 c         1 MOL      0.774053
     66 O11         6.2810   -0.2840    5.6680 o         1 MOL     -0.708856
     67 O12         4.5660   -1.6070    5.6790 o         1 MOL     -0.708856
     68 H28         3.1330   -0.9120    3.9240 hn        1 MOL      0.173282
     69 H29         5.0710   -1.8530    1.7330 h1        1 MOL      0.110212
     70 H30         5.9650   -0.3410    3.0970 hc        1 MOL      0.032547
     71 H31         6.6160   -1.9520    3.5720 hc        1 MOL      0.032547
     72 N7          3.5870   -4.0180    3.2160 n         1 MOL     -0.371408
     73 C23         3.3690   -5.5020    3.3570 c3        1 MOL     -0.208914
     74 C24         3.5090   -6.3200    2.0630 c         1 MOL      0.603480
     75 O13         3.0170   -7.4160    2.0080 o         1 MOL     -0.560242
     76 H32         2.7520   -3.4540    3.2310 hn        1 MOL      0.227276
     77 H33         2.3980   -5.6640    3.8290 h1        1 MOL      0.130564
     78 H34         4.1290   -5.9180    4.0100 h1        1 MOL      0.130564
     79 N8          4.0220   -5.6570    1.0030 n         1 MOL     -0.401962
     80 C25         3.7160   -6.0180   -0.3780 c3        1 MOL      0.102195
     81 C26         3.1340   -4.8850   -1.1900 c         1 MOL      0.216003
     82 O14         3.6530   -3.8190   -0.9880 o         1 MOL     -0.448737
     83 C27         4.9430   -6.5720   -0.9960 c3        1 MOL      0.313213
     84 C28         5.4910   -7.8040   -0.3890 c3        1 MOL     -0.478742
     85 O15         4.6900   -6.8220   -2.3410 oh        1 MOL     -0.576810
     86 H35         4.5400   -4.8130    1.2140 hn        1 MOL      0.212201
     87 H36         2.9980   -6.8430   -0.3490 h1        1 MOL      0.077020
     88 H37         5.7220   -5.8260   -0.8690 h1        1 MOL      0.003272
     89 H38         5.5640   -6.7880   -2.7230 ho        1 MOL      0.369510
     90 H39         6.3490   -8.2460   -0.8920 hc        1 MOL      0.130696
     91 H40         5.9330   -7.5680    0.5810 hc        1 MOL      0.130696
     92 H41         4.6430   -8.4790   -0.2830 hc        1 MOL      0.130696
     93 N9          2.1750   -5.0840   -2.0890 n         1 MOL     -0.047682
     94 C29         1.4500   -4.1000   -2.8810 c3        1 MOL      0.091278
     95 C30         0.2470   -3.4730   -2.1210 c         1 MOL      0.610333
     96 O16         0.1430   -2.2420   -2.0330 o         1 MOL     -0.542681
     97 C31         1.0330   -4.7300   -4.1910 c3        1 MOL      0.037726
     98 C32         2.1280   -5.4890   -5.0020 c3        1 MOL      0.086478
     99 C33         0.2560   -3.6620   -4.9750 c3        1 MOL     -0.275380
    100 C34         3.4140   -4.6100   -5.1750 c3        1 MOL     -0.182925
    101 H42         1.9070   -6.0550   -2.1840 hn        1 MOL      0.167454
    102 H43         2.0370   -3.2000   -3.0450 h1        1 MOL      0.041851
    103 H44         0.3020   -5.4960   -3.9230 hc        1 MOL     -0.042380
    104 H45         1.7980   -5.7700   -6.0130 hc        1 MOL     -0.002558
    105 H46         2.4190   -6.4420   -4.5500 hc        1 MOL     -0.002558
    106 H47        -0.7270   -3.3570   -4.6180 hc        1 MOL      0.081772
    107 H48         0.8440   -2.7490   -4.9380 hc        1 MOL      0.081772
    108 H49         0.2360   -4.0620   -5.9840 hc        1 MOL      0.081772
    109 H50         3.0880   -3.6220   -5.5100 hc        1 MOL      0.037008
    110 H51         3.8700   -4.5340   -4.1850 hc        1 MOL      0.037008
    111 H52         4.0580   -5.1410   -5.8710 hc        1 MOL      0.037008
    112 N10        -0.5150   -4.3190   -1.4340 n         1 MOL     -0.494281
    113 C35        -1.5130   -3.9700   -0.4270 c3        1 MOL     -0.040992
    114 C36        -2.8590   -4.6530   -0.5440 c         1 MOL      0.646681
    115 O17        -2.9540   -5.8280   -0.8410 o         1 MOL     -0.547717
    116 C37        -1.0190   -4.1910    0.9940 c3        1 MOL      0.245839
    117 C38        -0.6480   -5.6390    1.2700 c3        1 MOL     -0.291002
    118 O18         0.1400   -3.3990    1.3500 oh        1 MOL     -0.504640
    119 H53        -0.3420   -5.3100   -1.4990 hn        1 MOL      0.252282
    120 H54        -1.6470   -2.8960   -0.5410 h1        1 MOL      0.103457
    121 H55        -1.8310   -3.9920    1.6910 h1        1 MOL     -0.022904
    122 H56         0.0740   -3.1920    2.2850 ho        1 MOL      0.403292
    123 H57        -0.1050   -5.6440    2.2240 hc        1 MOL      0.083180
    124 H58        -1.5640   -6.2060    1.3880 hc        1 MOL      0.083180
    125 H59        -0.0140   -6.1260    0.5280 hc        1 MOL      0.083180
    126 N11        -3.9580   -4.0350   -0.1890 n         1 MOL     -0.479063
    127 C39        -5.2940   -4.5610   -0.4210 c3        1 MOL      0.013902
    128 C40        -6.1590   -3.5030   -1.0490 c         1 MOL      0.477105
    129 O19        -6.5320   -3.5830   -2.2380 o         1 MOL     -0.545587
    130 C41        -5.9110   -5.0950    0.8940 c3        1 MOL      0.260903
    131 C42        -7.4600   -5.4540    0.8110 c3        1 MOL     -0.307690
    132 O20        -5.7420   -4.1960    1.9890 oh        1 MOL     -0.603286
    133 H60        -3.7920   -3.1180    0.2180 hn        1 MOL      0.232844
    134 H61        -5.2450   -5.4230   -1.0860 h1        1 MOL      0.114846
    135 H62        -5.4000   -6.0060    1.2030 h1        1 MOL      0.039813
    136 H63        -5.2400   -4.6610    2.6600 ho        1 MOL      0.405927
    137 H64        -7.8000   -6.0070    1.6800 hc        1 MOL      0.084205
    138 H65        -8.0500   -4.5370    0.7710 hc        1 MOL      0.084205
    139 H66        -7.6180   -6.0000   -0.1250 hc        1 MOL      0.084205
    140 N12        -6.5050   -2.4510   -0.3270 n         1 MOL     -0.117243
    141 C43        -7.2330   -1.3130   -0.7760 c3        1 MOL     -0.030658
    142 C44        -6.5250   -0.0620   -0.3250 c         1 MOL      0.306241
    143 O21        -5.9980   -0.0100    0.7960 o         1 MOL     -0.455320
    144 C45        -8.7200   -1.3520   -0.2780 c3        1 MOL     -0.285900
    145 C46        -9.4950   -0.0610   -0.5740 c3        1 MOL      0.429922
    146 C47       -10.9950   -0.2700   -0.3330 c3        1 MOL     -0.308928
    147 C48       -11.6850    0.7350   -1.2140 c3        1 MOL      0.224406
    148 N13       -13.1770    0.5980   -1.0020 n4        1 MOL     -0.141571
    149 H67        -6.1780   -2.4990    0.6290 hn        1 MOL      0.152267
    150 H68        -7.0990   -1.1510   -1.8480 h1        1 MOL      0.060332
    151 H69        -8.6830   -1.3840    0.8120 hc        1 MOL      0.093939
    152 H70        -9.2750   -2.2520   -0.5230 hc        1 MOL      0.093939
    153 H71        -9.2740    0.2280   -1.6060 hc        1 MOL     -0.074406
    154 H72        -9.0150    0.7110    0.0170 hc        1 MOL     -0.074406
    155 H73       -11.1220   -0.0570    0.7320 hc        1 MOL      0.070884
    156 H74       -11.2610   -1.2750   -0.6500 hc        1 MOL      0.070884
    157 H75       -11.4990    0.5000   -2.2640 hx        1 MOL      0.021830
    158 H76       -11.3230    1.7370   -0.9950 hx        1 MOL      0.021830
    159 H77       -13.6130   -0.2600   -1.3020 hn        1 MOL      0.178003
    160 H78       -13.4980    0.7960   -0.0590 hn        1 MOL      0.178003
    161 H79       -13.6100    1.2950   -1.5980 hn        1 MOL      0.178003
    162 N14        -6.6110    1.0680   -1.0730 n         1 MOL     -0.256351
    163 C49        -6.0920    2.3570   -0.6120 c3        1 MOL      0.019168
    164 C50        -4.5850    2.2390   -0.2110 c         1 MOL      0.739498
    165 O22        -4.1790    2.8540    0.7570 o         1 MOL     -0.819880
    166 C51        -6.2630    3.4350   -1.7440 c3        1 MOL     -0.199111
    167 C52        -7.7070    3.8680   -1.8580 c3        1 MOL     -0.099944
    168 C53        -7.9720    4.7590   -3.0690 c         1 MOL      0.689408
    169 O23        -8.8330    4.4830   -3.9210 o         1 MOL     -0.707521
    170 O24        -7.3790    5.8580   -3.0780 o         1 MOL     -0.707521
    171 H80        -6.9840    1.0620   -2.0090 hn        1 MOL      0.295978
    172 H81        -6.6380    2.6170    0.2980 h1        1 MOL      0.066523
    173 H82        -5.8560    3.1730   -2.7260 hc        1 MOL      0.080841
    174 H83        -5.7380    4.3350   -1.4180 hc        1 MOL      0.080841
    175 H84        -7.9470    4.4200   -0.9480 hc        1 MOL     -0.018339
    176 H85        -8.3310    2.9880   -1.9880 hc        1 MOL     -0.018339
    177 N15        -3.7800    1.4010   -0.7930 n         1 MOL     -0.327587
    178 C54        -3.7330    1.0080   -2.1990 c3        1 MOL     -0.131896
    179 H86        -2.7500    1.2390   -2.6080 h1        1 MOL      0.081160
    180 H87        -3.9190   -0.0630   -2.2840 h1        1 MOL      0.081160
    181 H88        -4.4950    1.5540   -2.7550 h1        1 MOL      0.081160
    182 H89        -3.0020    1.1900   -0.1880 hn        1 MOL      0.247497
    183 Ca1        -3.0650    4.5230    2.3400 Ca        1 MOL      1.761046
    184 O25        -2.7920    4.0220    5.0690 oh        1 MOL     -0.792470
    185 H90        -2.4530    4.5060    5.8330 ho        1 MOL      0.399527
    186 H91        -3.0850    3.1880    5.4300 ho        1 MOL      0.399527
    187 O26        -3.8250    6.4930    0.7240 oh        1 MOL     -0.792470
    188 H92        -3.4610    6.5700   -0.1490 ho        1 MOL      0.399527
    189 H93        -4.6940    6.9040    0.6600 ho        1 MOL      0.399527
    190 O27        -2.5630    1.8620    2.8140 oh        1 MOL     -0.792470
    191 H94        -3.2450    1.2020    2.7540 ho        1 MOL      0.399527
    192 H95        -1.8540    1.4360    3.3000 ho        1 MOL      0.399527
    193 O28        -1.6530    6.5930    3.3350 oh        1 MOL     -0.792470
    194 H96        -1.6530    7.5460    3.4300 ho        1 MOL      0.399527
    195 H97        -0.9360    6.2920    3.8950 ho        1 MOL      0.399527
    196 O29        -4.8440    6.1660    3.8310 oh        1 MOL     -0.792470
    197 H98        -4.8880    7.0680    4.1570 ho        1 MOL      0.399527
    198 H99        -5.7620    5.9030    3.7420 ho        1 MOL      0.399527
    199 O30        -5.4940    3.3450    3.5560 oh        1 MOL     -0.792470
    200 H100       -6.1910    3.9520    3.3170 ho        1 MOL      0.399527
    201 H101       -5.6440    3.1670    4.4850 ho        1 MOL      0.399527
@<TRIPOS>BOND
     1    1    2 1   
     2    1    4 1   
     3    1    5 1   
     4    1    6 1   
     5    2    3 2   
     6    2    7 1   
     7    7    8 1   
     8    7   15 1   
     9    8    9 1   
    10    8   11 1   
    11    8   16 1   
    12    9   10 2   
    13    9   19 1   
    14   11   12 1   
    15   11   17 1   
    16   11   18 1   
    17   12   13 1   
    18   12   14 1   
    19   19   20 1   
    20   19   28 1   
    21   20   21 1   
    22   20   23 1   
    23   20   29 1   
    24   21   22 2   
    25   21   41 1   
    26   23   24 1   
    27   23   30 1   
    28   23   31 1   
    29   24   25 1   
    30   24   32 1   
    31   24   33 1   
    32   25   26 1   
    33   25   34 1   
    34   25   35 1   
    35   26   27 1   
    36   26   36 1   
    37   26   37 1   
    38   27   38 1   
    39   27   39 1   
    40   27   40 1   
    41   41   42 1   
    42   41   49 1   
    43   42   43 1   
    44   42   45 1   
    45   42   50 1   
    46   43   44 2   
    47   43   53 1   
    48   45   46 1   
    49   45   51 1   
    50   45   52 1   
    51   46   47 1   
    52   46   48 1   
    53   53   54 1   
    54   53   57 1   
    55   54   55 1   
    56   54   58 1   
    57   54   59 1   
    58   55   56 2   
    59   55   60 1   
    60   60   61 1   
    61   60   68 1   
    62   61   62 1   
    63   61   64 1   
    64   61   69 1   
    65   62   63 2   
    66   62   72 1   
    67   64   65 1   
    68   64   70 1   
    69   64   71 1   
    70   65   66 1   
    71   65   67 1   
    72   72   73 1   
    73   72   76 1   
    74   73   74 1   
    75   73   77 1   
    76   73   78 1   
    77   74   75 2   
    78   74   79 1   
    79   79   80 1   
    80   79   86 1   
    81   80   81 1   
    82   80   83 1   
    83   80   87 1   
    84   81   82 2   
    85   81   93 1   
    86   83   84 1   
    87   83   85 1   
    88   83   88 1   
    89   84   90 1   
    90   84   91 1   
    91   84   92 1   
    92   85   89 1   
    93   93   94 1   
    94   93  101 1   
    95   94   95 1   
    96   94   97 1   
    97   94  102 1   
    98   95   96 2   
    99   95  112 1   
   100   97   98 1   
   101   97   99 1   
   102   97  103 1   
   103   98  100 1   
   104   98  104 1   
   105   98  105 1   
   106   99  106 1   
   107   99  107 1   
   108   99  108 1   
   109  100  109 1   
   110  100  110 1   
   111  100  111 1   
   112  112  113 1   
   113  112  119 1   
   114  113  114 1   
   115  113  116 1   
   116  113  120 1   
   117  114  115 2   
   118  114  126 1   
   119  116  117 1   
   120  116  118 1   
   121  116  121 1   
   122  117  123 1   
   123  117  124 1   
   124  117  125 1   
   125  118  122 1   
   126  126  127 1   
   127  126  133 1   
   128  127  128 1   
   129  127  130 1   
   130  127  134 1   
   131  128  129 2   
   132  128  140 1   
   133  130  131 1   
   134  130  132 1   
   135  130  135 1   
   136  131  137 1   
   137  131  138 1   
   138  131  139 1   
   139  132  136 1   
   140  140  141 1   
   141  140  149 1   
   142  141  142 1   
   143  141  144 1   
   144  141  150 1   
   145  142  143 2   
   146  142  162 1   
   147  144  145 1   
   148  144  151 1   
   149  144  152 1   
   150  145  146 1   
   151  145  153 1   
   152  145  154 1   
   153  146  147 1   
   154  146  155 1   
   155  146  156 1   
   156  147  148 1   
   157  147  157 1   
   158  147  158 1   
   159  148  159 1   
   160  148  160 1   
   161  148  161 1   
   162  162  163 1   
   163  162  171 1   
   164  163  164 1   
   165  163  166 1   
   166  163  172 1   
   167  164  165 2   
   168  164  177 1   
   169  166  167 1   
   170  166  173 1   
   171  166  174 1   
   172  167  168 1   
   173  167  175 1   
   174  167  176 1   
   175  168  169 1   
   176  168  170 1   
   177  177  178 1   
   178  177  182 1   
   179  178  179 1   
   180  178  180 1   
   181  178  181 1   
   182  184  185 1   
   183  184  186 1   
   184  187  188 1   
   185  187  189 1   
   186  190  191 1   
   187  190  192 1   
   188  193  194 1   
   189  193  195 1   
   190  196  197 1   
   191  196  198 1   
   192  199  200 1   
   193  199  201 1   
@<TRIPOS>SUBSTRUCTURE
     1 MOL         1 TEMP              0 ****  ****    0 ROOT
