@<TRIPOS>MOLECULE
MOL
  198   191     1     0     0
SMALL
resp


@<TRIPOS>ATOM
      1 C1          0.1340    6.3260    3.2350 c3        1 MOL     -0.494309
      2 C2         -0.9010    5.1870    2.8600 c         1 MOL      0.689347
      3 O1         -0.8190    4.0300    3.2640 o         1 MOL     -0.558604
      4 H1          1.0690    6.1570    2.7020 hc        1 MOL      0.132704
      5 H2         -0.2740    7.2970    2.9530 hc        1 MOL      0.132704
      6 H3          0.3210    6.3080    4.3090 hc        1 MOL      0.132704
      7 N1         -1.8650    5.6620    2.0370 n         1 MOL     -0.471542
      8 C3         -3.2200    5.1610    1.9000 c3        1 MOL     -0.029482
      9 C4         -3.2630    3.6990    1.4400 c         1 MOL      0.434190
     10 O2         -2.7520    3.3380    0.3990 o         1 MOL     -0.539318
     11 C5         -4.1720    6.0950    1.1750 c3        1 MOL     -0.027552
     12 C6         -3.6330    6.6860   -0.1340 c         1 MOL      0.574546
     13 O3         -2.6470    6.1900   -0.6980 o         1 MOL     -0.653038
     14 O4         -4.3060    7.6830   -0.5560 o         1 MOL     -0.653038
     15 H4         -1.6650    6.4280    1.4010 hn        1 MOL      0.275899
     16 H5         -3.6110    5.1730    2.9240 h1        1 MOL      0.038158
     17 H6         -4.3610    6.9440    1.8270 hc        1 MOL      0.038420
     18 H7         -5.1330    5.5960    1.0730 hc        1 MOL      0.038420
     19 N2         -4.0070    2.8280    2.1140 n         1 MOL     -0.449597
     20 C7         -3.8660    1.3320    1.9080 c3        1 MOL      0.038046
     21 C8         -4.6440    0.8350    0.8070 c         1 MOL      0.433052
     22 O5         -4.8820   -0.3490    0.6300 o         1 MOL     -0.511795
     23 C9         -4.0510    0.7110    3.3020 c3        1 MOL      0.128583
     24 C10        -5.4770    0.4420    3.6040 c3        1 MOL     -0.163425
     25 C11        -5.5890   -0.0470    5.0260 c3        1 MOL     -0.148785
     26 C12        -6.9000   -0.5090    5.5170 c3        1 MOL      0.247175
     27 N3         -6.9780   -0.7100    6.9620 n4        1 MOL     -0.304973
     28 H8         -4.6680    3.1360    2.8120 hn        1 MOL      0.281658
     29 H9         -2.8410    1.0970    1.6150 h1        1 MOL      0.145541
     30 H10        -3.5720    1.2750    4.0940 hc        1 MOL      0.016594
     31 H11        -3.5580   -0.2620    3.3400 hc        1 MOL      0.016594
     32 H12        -5.7310   -0.3770    2.9350 hc        1 MOL      0.071835
     33 H13        -6.0290    1.3810    3.5690 hc        1 MOL      0.071835
     34 H14        -5.3550    0.8630    5.5980 hc        1 MOL      0.037312
     35 H15        -4.9330   -0.9060    5.1260 hc        1 MOL      0.037312
     36 H16        -6.9920   -1.4370    4.9510 hx        1 MOL      0.021807
     37 H17        -7.7440    0.1160    5.2080 hx        1 MOL      0.021807
     38 H18        -6.9010    0.1970    7.4020 hn        1 MOL      0.259691
     39 H19        -7.8370   -1.1620    7.2160 hn        1 MOL      0.259691
     40 H20        -6.1840   -1.2300    7.3220 hn        1 MOL      0.259691
     41 N4         -5.1950    1.7090   -0.0740 n         1 MOL     -0.582693
     42 C13        -5.8350    1.3200   -1.3190 c3        1 MOL      0.690072
     43 C14        -4.9590    1.1010   -2.4950 c         1 MOL      0.297716
     44 O6         -3.9060    1.7100   -2.5860 o         1 MOL     -0.586247
     45 C15        -6.8640    2.3960   -1.5650 c3        1 MOL     -0.476903
     46 C16        -6.3450    3.8320   -1.5650 c         1 MOL      0.743271
     47 O7         -7.0870    4.7960   -1.8540 o         1 MOL     -0.664884
     48 O8         -5.1450    4.0130   -1.4800 o         1 MOL     -0.664884
     49 H21        -4.9620    2.6910    0.0110 hn        1 MOL      0.286687
     50 H22        -6.3880    0.3990   -1.1460 h1        1 MOL     -0.053336
     51 H23        -7.5520    2.3380   -0.7220 hc        1 MOL      0.082603
     52 H24        -7.4000    2.1940   -2.4860 hc        1 MOL      0.082603
     53 N5         -5.3390    0.2300   -3.4490 n         1 MOL     -0.392360
     54 C17        -6.6340   -0.3270   -3.7510 c3        1 MOL     -0.076728
     55 C18        -6.7270   -1.8410   -3.2080 c         1 MOL      0.598685
     56 O9         -7.7910   -2.3070   -2.7540 o         1 MOL     -0.527664
     57 H25        -4.6390    0.2150   -4.1790 hn        1 MOL      0.307643
     58 H26        -6.7500   -0.5300   -4.8150 h1        1 MOL      0.099426
     59 H27        -7.4970    0.2240   -3.3760 h1        1 MOL      0.099426
     60 N6         -5.6110   -2.6070   -3.2400 n         1 MOL     -0.653811
     61 C19        -5.5950   -4.0490   -3.0060 c3        1 MOL      0.368925
     62 C20        -4.3670   -4.4310   -2.1790 c         1 MOL      0.480822
     63 O10        -3.3580   -3.6780   -2.0860 o         1 MOL     -0.522450
     64 C21        -5.6140   -4.8690   -4.2990 c3        1 MOL     -0.149065
     65 C22        -6.6840   -4.4530   -5.2880 c         1 MOL      0.712500
     66 O11        -6.3600   -3.6960   -6.2180 o         1 MOL     -0.656095
     67 O12        -7.8200   -4.9620   -5.1880 o         1 MOL     -0.656095
     68 H28        -4.7090   -2.1770   -3.3840 hn        1 MOL      0.308040
     69 H29        -6.4630   -4.3860   -2.4350 h1        1 MOL     -0.018397
     70 H30        -5.7890   -5.9040   -4.0080 hc        1 MOL      0.001906
     71 H31        -4.6720   -4.7070   -4.8140 hc        1 MOL      0.001906
     72 N7         -4.4200   -5.6110   -1.5770 n         1 MOL     -0.520476
     73 C23        -3.2640   -6.3570   -0.9300 c3        1 MOL     -0.036238
     74 C24        -2.6140   -5.8090    0.3040 c         1 MOL      0.537248
     75 O13        -1.4960   -6.1720    0.5550 o         1 MOL     -0.554309
     76 H32        -5.2690   -6.1540   -1.6150 hn        1 MOL      0.321525
     77 H33        -2.5330   -6.5950   -1.6930 h1        1 MOL      0.093917
     78 H34        -3.6620   -7.3480   -0.6680 h1        1 MOL      0.093917
     79 N8         -3.2650   -4.9020    1.0260 n         1 MOL     -0.399575
     80 C25        -2.6510   -4.4120    2.2940 c3        1 MOL      0.175092
     81 C26        -2.0490   -3.0470    2.1510 c         1 MOL      0.183531
     82 O14        -2.3590   -2.4520    1.0990 o         1 MOL     -0.406459
     83 C27        -3.7280   -4.2720    3.3830 c3        1 MOL      0.091765
     84 C28        -4.8410   -3.3460    3.0780 c3        1 MOL      0.101178
     85 O15        -4.2470   -5.5030    3.7000 oh        1 MOL     -0.618311
     86 H35        -4.0370   -4.3860    0.6360 hn        1 MOL      0.283120
     87 H36        -1.8110   -5.0350    2.5930 h1        1 MOL      0.072321
     88 H37        -3.2510   -3.8440    4.2620 h1        1 MOL      0.015695
     89 H38        -3.6470   -6.0840    4.1760 ho        1 MOL      0.410007
     90 H39        -5.6400   -3.5300    3.7880 hc        1 MOL      0.008383
     91 H40        -4.5060   -2.3220    3.1900 hc        1 MOL      0.008383
     92 H41        -5.2810   -3.4710    2.0850 hc        1 MOL      0.008383
     93 N9         -1.2540   -2.4060    3.0360 n         1 MOL     -0.164681
     94 C29        -0.6670   -1.0660    2.9260 c3        1 MOL     -0.129290
     95 C30         0.3170   -0.9250    1.7810 c         1 MOL      0.471742
     96 O16         0.2720    0.1000    1.0910 o         1 MOL     -0.448255
     97 C31        -0.1040   -0.7060    4.2750 c3        1 MOL      0.165180
     98 C32        -1.1380   -0.9330    5.4340 c3        1 MOL      0.345916
     99 C33         0.3360    0.8010    4.2160 c3        1 MOL     -0.310634
    100 C34        -0.4960   -0.9520    6.8070 c3        1 MOL     -0.302217
    101 H42        -1.0530   -2.8220    3.9370 hn        1 MOL      0.159967
    102 H43        -1.4380   -0.3170    2.7190 h1        1 MOL      0.045437
    103 H44         0.7370   -1.3730    4.3980 hc        1 MOL     -0.019041
    104 H45        -1.7780   -1.8130    5.3010 hc        1 MOL     -0.102593
    105 H46        -1.8830   -0.1340    5.3640 hc        1 MOL     -0.102593
    106 H47         1.1150    0.9950    3.4710 hc        1 MOL      0.095257
    107 H48        -0.5460    1.3940    3.9880 hc        1 MOL      0.095257
    108 H49         0.7630    1.1800    5.1440 hc        1 MOL      0.095257
    109 H50         0.2400   -0.1530    6.7490 hc        1 MOL      0.055460
    110 H51        -1.3050   -0.9150    7.5430 hc        1 MOL      0.055460
    111 H52         0.0810   -1.8780    6.6990 hc        1 MOL      0.055460
    112 N10         1.0480   -2.0130    1.5680 n         1 MOL     -0.393189
    113 C35         1.9960   -2.1190    0.4810 c3        1 MOL     -0.108175
    114 C36         3.1520   -3.0920    0.8400 c         1 MOL      0.644972
    115 O17         2.8310   -4.1270    1.4530 o         1 MOL     -0.549522
    116 C37         1.3630   -2.6370   -0.8810 c3        1 MOL      0.433125
    117 C38         0.5580   -3.9000   -0.8070 c3        1 MOL     -0.316253
    118 O18         0.6230   -1.6220   -1.5540 oh        1 MOL     -0.647972
    119 H53         0.7300   -2.8680    1.9940 hn        1 MOL      0.234547
    120 H54         2.3150   -1.0850    0.3250 h1        1 MOL      0.098026
    121 H55         2.1770   -2.9220   -1.5490 h1        1 MOL      0.004166
    122 H56        -0.3000   -1.8250   -1.4220 ho        1 MOL      0.393538
    123 H57         1.1650   -4.7690   -1.0540 hc        1 MOL      0.097451
    124 H58         0.1800   -4.1230    0.1890 hc        1 MOL      0.097451
    125 H59        -0.2870   -3.8850   -1.5030 hc        1 MOL      0.097451
    126 N11         4.3740   -2.7790    0.4930 n         1 MOL     -0.574220
    127 C39         5.4990   -3.7230    0.5800 c3        1 MOL      0.064991
    128 C40         6.8950   -3.1280    0.7610 c         1 MOL      0.673692
    129 O19         7.6230   -3.4860    1.6540 o         1 MOL     -0.535048
    130 C41         5.4510   -4.6740   -0.6380 c3        1 MOL      0.165082
    131 C42         6.6280   -5.5940   -0.6170 c3        1 MOL     -0.254666
    132 O20         5.4350   -3.9060   -1.8620 oh        1 MOL     -0.631600
    133 H60         4.5460   -1.9050    0.0200 hn        1 MOL      0.314291
    134 H61         5.4810   -4.2450    1.5450 h1        1 MOL      0.082225
    135 H62         4.5400   -5.2380   -0.4580 h1        1 MOL      0.069535
    136 H63         5.5200   -4.5380   -2.5870 ho        1 MOL      0.425331
    137 H64         7.5130   -5.1200   -1.0560 hc        1 MOL      0.066723
    138 H65         6.9140   -5.7720    0.4210 hc        1 MOL      0.066723
    139 H66         6.5260   -6.5380   -1.1500 hc        1 MOL      0.066723
    140 N12         7.1970   -2.0030    0.0520 n         1 MOL     -0.543278
    141 C43         8.4440   -1.2380    0.0930 c3        1 MOL     -0.013244
    142 C44         8.1940    0.0280   -0.7390 c         1 MOL      0.519207
    143 O21         7.4990   -0.0200   -1.7670 o         1 MOL     -0.494657
    144 C45         9.6440   -2.0500   -0.5540 c3        1 MOL     -0.179068
    145 C46        11.0560   -1.3120   -0.6210 c3        1 MOL     -0.019924
    146 C47        12.1560   -2.3020   -1.1050 c3        1 MOL      0.183332
    147 C48        13.2820   -1.5780   -1.7840 c3        1 MOL      0.120708
    148 N13        14.2010   -2.5680   -2.4330 n4        1 MOL     -0.329906
    149 H67         6.5880   -1.8090   -0.7230 hn        1 MOL      0.323703
    150 H68         8.8070   -1.0280    1.1010 h1        1 MOL      0.099583
    151 H69         9.3320   -2.3870   -1.5440 hc        1 MOL      0.077262
    152 H70         9.7190   -2.9440    0.0610 hc        1 MOL      0.077262
    153 H71        11.4120   -0.7840    0.2670 hc        1 MOL      0.014033
    154 H72        10.9060   -0.5930   -1.4190 hc        1 MOL      0.014033
    155 H73        11.8020   -2.9230   -1.9340 hc        1 MOL     -0.041479
    156 H74        12.6130   -2.9330   -0.3480 hc        1 MOL     -0.041479
    157 H75        13.7120   -0.9370   -1.0180 hx        1 MOL      0.048518
    158 H76        12.8290   -0.9010   -2.5140 hx        1 MOL      0.048518
    159 H77        13.9080   -2.8180   -3.3630 hn        1 MOL      0.280309
    160 H78        15.1360   -2.2010   -2.4590 hn        1 MOL      0.280309
    161 H79        14.3400   -3.4240   -1.9060 hn        1 MOL      0.280309
    162 N14         8.7040    1.1740   -0.2400 n         1 MOL     -0.395693
    163 C49         8.2730    2.4850   -0.7860 c3        1 MOL      0.238197
    164 C50         6.7120    2.7930   -0.8640 c         1 MOL      0.339257
    165 O22         6.1570    3.1270   -1.9420 o         1 MOL     -0.518815
    166 C51         9.1520    3.6590   -0.2930 c3        1 MOL     -0.020424
    167 C52        10.5920    3.6100   -0.8580 c3        1 MOL     -0.089695
    168 C53        11.4380    4.5470   -0.0400 c         1 MOL      0.684707
    169 O23        11.6430    5.6740   -0.4960 o         1 MOL     -0.679208
    170 O24        11.9350    4.0820    1.0150 o         1 MOL     -0.679208
    171 H80         9.3460    1.1610    0.5410 hn        1 MOL      0.268835
    172 H81         8.5020    2.3850   -1.8480 h1        1 MOL      0.020637
    173 H82         9.2310    3.6370    0.7910 hc        1 MOL      0.024536
    174 H83         8.7120    4.6080   -0.5940 hc        1 MOL      0.024536
    175 H84        10.6040    3.6930   -1.9400 hc        1 MOL     -0.017343
    176 H85        10.9660    2.6010   -0.6820 hc        1 MOL     -0.017343
    177 N15         5.9510    2.8990    0.2170 n         1 MOL     -0.350996
    178 C54         6.2250    2.6180    1.6660 c3        1 MOL      0.023628
    179 H86         5.4130    2.0200    2.0800 h1        1 MOL      0.029522
    180 H87         7.1630    2.0690    1.7590 h1        1 MOL      0.029522
    181 H88         6.2990    3.5580    2.2120 h1        1 MOL      0.029522
    182 H89         5.0110    3.1860   -0.0060 hn        1 MOL      0.297610
    183 Ca1        -2.7400    4.0000   -2.1800 Ca        1 MOL      1.700973
    184 O25        -1.0270    1.2210   -1.7800 oh        1 MOL     -0.777447
    185 H90        -0.7180    0.7180   -1.0320 ho        1 MOL      0.391437
    186 H91        -1.6430    0.6410   -2.2350 ho        1 MOL      0.391437
    187 O26        -1.2680    3.2710   -4.4140 oh        1 MOL     -0.777447
    188 H92        -1.0310    3.8440   -5.1430 ho        1 MOL      0.391437
    189 H93        -1.0100    2.3960   -4.7010 ho        1 MOL      0.391437
    190 O27        -4.4010    4.2930   -4.3780 oh        1 MOL     -0.777447
    191 H94        -5.2810    4.6830   -4.3710 ho        1 MOL      0.391437
    192 H95        -4.3540    3.8210   -5.2050 ho        1 MOL      0.391437
    193 O28        -0.0610    4.2300   -1.5880 oh        1 MOL     -0.777447
    194 H96         0.4740    5.0140   -1.6490 ho        1 MOL      0.391437
    195 H97         0.1940    3.8250   -0.7550 ho        1 MOL      0.391437
    196 O29        -2.0100    6.1860   -3.7430 oh        1 MOL     -0.777447
    197 H98        -2.7340    6.7900   -3.9120 ho        1 MOL      0.391437
    198 H99        -1.5790    6.0870   -4.5920 ho        1 MOL      0.391437
@<TRIPOS>BOND
     1    1    2 1   
     2    1    4 1   
     3    1    5 1   
     4    1    6 1   
     5    2    3 2   
     6    2    7 1   
     7    7    8 1   
     8    7   15 1   
     9    8    9 1   
    10    8   11 1   
    11    8   16 1   
    12    9   10 2   
    13    9   19 1   
    14   11   12 1   
    15   11   17 1   
    16   11   18 1   
    17   12   13 1   
    18   12   14 1   
    19   19   20 1   
    20   19   28 1   
    21   20   21 1   
    22   20   23 1   
    23   20   29 1   
    24   21   22 2   
    25   21   41 1   
    26   23   24 1   
    27   23   30 1   
    28   23   31 1   
    29   24   25 1   
    30   24   32 1   
    31   24   33 1   
    32   25   26 1   
    33   25   34 1   
    34   25   35 1   
    35   26   27 1   
    36   26   36 1   
    37   26   37 1   
    38   27   38 1   
    39   27   39 1   
    40   27   40 1   
    41   41   42 1   
    42   41   49 1   
    43   42   43 1   
    44   42   45 1   
    45   42   50 1   
    46   43   44 2   
    47   43   53 1   
    48   45   46 1   
    49   45   51 1   
    50   45   52 1   
    51   46   47 1   
    52   46   48 1   
    53   53   54 1   
    54   53   57 1   
    55   54   55 1   
    56   54   58 1   
    57   54   59 1   
    58   55   56 2   
    59   55   60 1   
    60   60   61 1   
    61   60   68 1   
    62   61   62 1   
    63   61   64 1   
    64   61   69 1   
    65   62   63 2   
    66   62   72 1   
    67   64   65 1   
    68   64   70 1   
    69   64   71 1   
    70   65   66 1   
    71   65   67 1   
    72   72   73 1   
    73   72   76 1   
    74   73   74 1   
    75   73   77 1   
    76   73   78 1   
    77   74   75 2   
    78   74   79 1   
    79   79   80 1   
    80   79   86 1   
    81   80   81 1   
    82   80   83 1   
    83   80   87 1   
    84   81   82 2   
    85   81   93 1   
    86   83   84 1   
    87   83   85 1   
    88   83   88 1   
    89   84   90 1   
    90   84   91 1   
    91   84   92 1   
    92   85   89 1   
    93   93   94 1   
    94   93  101 1   
    95   94   95 1   
    96   94   97 1   
    97   94  102 1   
    98   95   96 2   
    99   95  112 1   
   100   97   98 1   
   101   97   99 1   
   102   97  103 1   
   103   98  100 1   
   104   98  104 1   
   105   98  105 1   
   106   99  106 1   
   107   99  107 1   
   108   99  108 1   
   109  100  109 1   
   110  100  110 1   
   111  100  111 1   
   112  112  113 1   
   113  112  119 1   
   114  113  114 1   
   115  113  116 1   
   116  113  120 1   
   117  114  115 2   
   118  114  126 1   
   119  116  117 1   
   120  116  118 1   
   121  116  121 1   
   122  117  123 1   
   123  117  124 1   
   124  117  125 1   
   125  118  122 1   
   126  126  127 1   
   127  126  133 1   
   128  127  128 1   
   129  127  130 1   
   130  127  134 1   
   131  128  129 2   
   132  128  140 1   
   133  130  131 1   
   134  130  132 1   
   135  130  135 1   
   136  131  137 1   
   137  131  138 1   
   138  131  139 1   
   139  132  136 1   
   140  140  141 1   
   141  140  149 1   
   142  141  142 1   
   143  141  144 1   
   144  141  150 1   
   145  142  143 2   
   146  142  162 1   
   147  144  145 1   
   148  144  151 1   
   149  144  152 1   
   150  145  146 1   
   151  145  153 1   
   152  145  154 1   
   153  146  147 1   
   154  146  155 1   
   155  146  156 1   
   156  147  148 1   
   157  147  157 1   
   158  147  158 1   
   159  148  159 1   
   160  148  160 1   
   161  148  161 1   
   162  162  163 1   
   163  162  171 1   
   164  163  164 1   
   165  163  166 1   
   166  163  172 1   
   167  164  165 2   
   168  164  177 1   
   169  166  167 1   
   170  166  173 1   
   171  166  174 1   
   172  167  168 1   
   173  167  175 1   
   174  167  176 1   
   175  168  169 1   
   176  168  170 1   
   177  177  178 1   
   178  177  182 1   
   179  178  179 1   
   180  178  180 1   
   181  178  181 1   
   182  184  185 1   
   183  184  186 1   
   184  187  188 1   
   185  187  189 1   
   186  190  191 1   
   187  190  192 1   
   188  193  194 1   
   189  193  195 1   
   190  196  197 1   
   191  196  198 1   
@<TRIPOS>SUBSTRUCTURE
     1 MOL         1 TEMP              0 ****  ****    0 ROOT
