@<TRIPOS>MOLECULE
MOL
  191   184     1     0     0
SMALL
resp


@<TRIPOS>ATOM
      1 C1          1.8310    1.3410    2.9200 c3        1 MOL     -0.597023
      2 C2          2.9650    1.4550    1.8690 c         1 MOL      0.731821
      3 O1          2.7260    1.7880    0.7340 o         1 MOL     -0.583202
      4 H1          2.2040    0.8200    3.8020 hc        1 MOL      0.161017
      5 H2          1.4960    2.3390    3.2020 hc        1 MOL      0.161017
      6 H3          0.9960    0.7830    2.4950 hc        1 MOL      0.161017
      7 N1          4.2390    1.0630    2.1480 n         1 MOL     -0.527847
      8 C3          5.3740    1.0900    1.2250 c3        1 MOL      0.020383
      9 C4          6.1660   -0.2620    1.1530 c         1 MOL      0.403107
     10 O2          7.1880   -0.2620    0.4490 o         1 MOL     -0.422416
     11 C5          6.3890    2.2110    1.6340 c3        1 MOL      0.005078
     12 C6          6.8780    2.3010    3.1420 c         1 MOL      0.682661
     13 O3          7.5760    3.3210    3.4470 o         1 MOL     -0.687051
     14 O4          6.6000    1.4420    3.9430 o         1 MOL     -0.687051
     15 H4          4.4510    0.5440    2.9820 hn        1 MOL      0.267566
     16 H5          4.9230    1.2610    0.2480 h1        1 MOL      0.116308
     17 H6          5.9020    3.1880    1.5340 hc        1 MOL      0.000301
     18 H7          7.2710    2.2030    0.9960 hc        1 MOL      0.000301
     19 N2          5.7050   -1.3130    1.8530 n         1 MOL     -0.383266
     20 C7          6.2590   -2.6710    1.7550 c3        1 MOL      0.146191
     21 C8          6.3740   -3.1980    0.2840 c         1 MOL      0.392956
     22 O5          7.3850   -3.6130   -0.2320 o         1 MOL     -0.486126
     23 C9          7.4440   -2.7390    2.6010 c3        1 MOL     -0.199578
     24 C10         7.1710   -2.6470    4.1210 c3        1 MOL      0.394472
     25 C11         8.4710   -2.9670    4.8000 c3        1 MOL     -0.104557
     26 C12         8.1170   -3.3200    6.3050 c3        1 MOL      0.079214
     27 N3          9.2620   -3.9320    7.0390 n4        1 MOL     -0.267738
     28 H8          4.9620   -1.0830    2.4940 hn        1 MOL      0.249615
     29 H9          5.4900   -3.3010    2.2060 h1        1 MOL      0.047598
     30 H10         8.1600   -1.9810    2.3100 hc        1 MOL      0.053714
     31 H11         7.8880   -3.7220    2.4340 hc        1 MOL      0.053714
     32 H12         6.4110   -3.4110    4.2930 hc        1 MOL     -0.095925
     33 H13         6.6610   -1.7040    4.3400 hc        1 MOL     -0.095925
     34 H14         9.1880   -2.1550    4.7890 hc        1 MOL      0.044671
     35 H15         8.8850   -3.8130    4.2520 hc        1 MOL      0.044671
     36 H16         7.3840   -4.1160    6.3650 hx        1 MOL      0.056554
     37 H17         7.7070   -2.4530    6.8160 hx        1 MOL      0.056554
     38 H18         8.9630   -4.2370    7.9530 hn        1 MOL      0.275897
     39 H19         9.5810   -4.7560    6.5550 hn        1 MOL      0.275897
     40 H20        10.0350   -3.3010    7.1800 hn        1 MOL      0.275897
     41 N4          5.2210   -3.0920   -0.4660 n         1 MOL     -0.320527
     42 C13         5.1090   -3.3120   -1.9050 c3        1 MOL      0.219191
     43 C14         4.5730   -2.0500   -2.6080 c         1 MOL      0.378762
     44 O6          4.0920   -2.0520   -3.7550 o         1 MOL     -0.571680
     45 C15         4.3460   -4.6590   -2.1870 c3        1 MOL     -0.359336
     46 C16         2.7970   -4.5740   -1.8810 c         1 MOL      0.666032
     47 O7          2.1180   -5.6560   -2.0030 o         1 MOL     -0.698885
     48 O8          2.2050   -3.5330   -1.6350 o         1 MOL     -0.698885
     49 H21         4.3140   -2.8560   -0.0820 hn        1 MOL      0.201803
     50 H22         6.0280   -3.5920   -2.4120 h1        1 MOL      0.099027
     51 H23         4.8030   -5.3940   -1.5250 hc        1 MOL      0.104018
     52 H24         4.4740   -5.0130   -3.2060 hc        1 MOL      0.104018
     53 N5          4.8530   -0.9040   -1.9880 n         1 MOL     -0.272446
     54 C17         4.6940    0.4270   -2.4650 c3        1 MOL      0.197425
     55 C18         5.9980    1.1090   -2.7850 c         1 MOL      0.619459
     56 O9          7.0340    0.4000   -2.8980 o         1 MOL     -0.537766
     57 H25         5.3240   -0.9920   -1.0990 hn        1 MOL      0.118630
     58 H26         4.0850    1.0730   -1.8320 h1        1 MOL     -0.003832
     59 H27         4.2140    0.3450   -3.4480 h1        1 MOL     -0.003832
     60 N6          6.1330    2.4430   -3.0700 n         1 MOL     -0.797333
     61 C19         5.0530    3.4670   -2.9510 c3        1 MOL      0.561279
     62 C20         5.1240    4.2090   -1.6070 c         1 MOL      0.425934
     63 O10         6.2290    4.4920   -1.0960 o         1 MOL     -0.516194
     64 C21         5.2390    4.5420   -4.0530 c3        1 MOL     -0.383892
     65 C22         3.9690    5.1570   -4.5200 c         1 MOL      0.687562
     66 N7          3.7870    6.3980   -4.1460 n         1 MOL     -0.759401
     67 O11         3.2190    4.5640   -5.2870 o         1 MOL     -0.576684
     68 H28         7.0680    2.6310   -3.3960 hn        1 MOL      0.381696
     69 H29         4.0970    2.9940   -3.1970 h1        1 MOL     -0.052138
     70 H30         5.6850    4.0810   -4.9270 hc        1 MOL      0.108041
     71 H31         5.9230    5.2920   -3.6550 hc        1 MOL      0.108041
     72 H32         4.4710    6.9320   -3.6270 hn        1 MOL      0.357532
     73 H33         3.0410    6.9320   -4.5650 hn        1 MOL      0.357532
     74 N8          3.9770    4.5310   -1.0000 n         1 MOL     -0.500407
     75 C23         2.5850    4.2770   -1.5070 c3        1 MOL     -0.182120
     76 C24         1.4820    4.8110   -0.5870 c         1 MOL      0.791802
     77 O12         1.7000    5.8230    0.0720 o         1 MOL     -0.569713
     78 H34         3.9610    4.8680   -0.0560 hn        1 MOL      0.352442
     79 H35         2.5360    3.1900   -1.5410 h1        1 MOL      0.086572
     80 H36         2.4360    4.6380   -2.5190 h1        1 MOL      0.086572
     81 N9          0.2930    4.1990   -0.5720 n         1 MOL     -0.646270
     82 C25        -0.9300    4.7620    0.0080 c3        1 MOL      0.170405
     83 C26        -1.9750    3.7020    0.4520 c         1 MOL      0.596288
     84 O13        -1.7730    2.4940    0.0970 o         1 MOL     -0.545500
     85 C27        -1.5070    5.8180   -1.0020 c3        1 MOL     -0.190507
     86 C28        -2.8410    6.4200   -0.5440 ca        1 MOL      0.020123
     87 C29        -3.9930    6.4040   -1.3370 ca        1 MOL     -0.082836
     88 C30        -2.9060    7.1420    0.6590 ca        1 MOL     -0.082836
     89 C31        -5.1850    7.0700   -0.9290 ca        1 MOL     -0.293042
     90 C32        -4.0170    7.8880    1.0870 ca        1 MOL     -0.293042
     91 C33        -5.1640    7.8070    0.3110 ca        1 MOL      0.355959
     92 O14        -6.1790    8.6250    0.7020 oh        1 MOL     -0.508766
     93 H37         0.0630    3.5110   -1.2630 hn        1 MOL      0.291876
     94 H38        -0.6350    5.2950    0.9080 h1        1 MOL      0.047233
     95 H39        -1.5530    5.2830   -1.9470 hc        1 MOL      0.086314
     96 H40        -0.7980    6.6270   -1.1940 hc        1 MOL      0.086314
     97 H41        -3.8220    6.0000   -2.3260 ha        1 MOL      0.109308
     98 H42        -2.0330    7.1310    1.2910 ha        1 MOL      0.109308
     99 H43        -5.9890    7.2010   -1.6460 ha        1 MOL      0.170730
    100 H44        -4.0040    8.4360    2.0190 ha        1 MOL      0.170730
    101 H45        -6.0630    8.9930    1.5760 ho        1 MOL      0.374320
    102 N10        -2.9270    4.0480    1.3010 n         1 MOL     -0.432014
    103 C34        -3.8130    3.0700    1.9350 c3        1 MOL     -0.013752
    104 C35        -4.9350    2.5930    1.0080 c         1 MOL      0.484744
    105 O15        -5.1830    3.2630   -0.0420 o         1 MOL     -0.505278
    106 C36        -4.3520    3.6200    3.3000 c3        1 MOL      0.209756
    107 C37        -5.0370    5.0210    3.2370 c3        1 MOL      0.199371
    108 C38        -5.1050    2.5840    4.1080 c3        1 MOL     -0.315472
    109 C39        -5.3170    5.6320    4.5940 c3        1 MOL     -0.351178
    110 H46        -3.0600    5.0180    1.5390 hn        1 MOL      0.217541
    111 H47        -3.2390    2.1640    2.1620 h1        1 MOL      0.066709
    112 H48        -3.3550    3.8500    3.6760 hc        1 MOL     -0.023226
    113 H49        -5.9430    4.8580    2.6560 hc        1 MOL     -0.039404
    114 H50        -4.3850    5.6700    2.6560 hc        1 MOL     -0.039404
    115 H51        -5.2890    2.9110    5.1320 hc        1 MOL      0.080556
    116 H52        -6.0480    2.4190    3.5880 hc        1 MOL      0.080556
    117 H53        -4.5710    1.6290    4.1380 hc        1 MOL      0.080556
    118 H54        -6.2170    5.1940    5.0320 hc        1 MOL      0.082106
    119 H55        -4.3820    5.5540    5.1480 hc        1 MOL      0.082106
    120 H56        -5.5840    6.6690    4.3870 hc        1 MOL      0.082106
    121 N11        -5.5510    1.4330    1.3120 n         1 MOL     -0.403592
    122 C40        -6.6880    0.9210    0.5410 c3        1 MOL      0.005372
    123 C41        -6.1900   -0.0900   -0.5650 c         1 MOL      0.661337
    124 O16        -5.2080   -0.7520   -0.3240 o         1 MOL     -0.480485
    125 C42        -7.7150    0.3480    1.5110 c3        1 MOL     -0.037768
    126 O17        -7.2460   -0.8530    2.0510 oh        1 MOL     -0.404037
    127 H57        -5.2410    0.9060    2.1260 hn        1 MOL      0.305369
    128 H58        -7.2510    1.7760    0.1550 h1        1 MOL      0.073991
    129 H59        -8.5840   -0.0720    1.0170 h1        1 MOL      0.061264
    130 H60        -7.9560    1.0210    2.3260 h1        1 MOL      0.061264
    131 H61        -8.0200   -1.4070    2.1710 ho        1 MOL      0.367725
    132 N12        -6.8080   -0.2280   -1.7110 n         1 MOL     -0.596443
    133 C43        -6.5500   -1.2820   -2.6750 c3        1 MOL      0.378879
    134 C44        -6.5560   -2.7100   -2.1370 c         1 MOL      0.479581
    135 O18        -5.7320   -3.5430   -2.4190 o         1 MOL     -0.519130
    136 C45        -5.3060   -0.9370   -3.5300 c3        1 MOL     -0.571265
    137 H62        -7.6380    0.3370   -1.8800 hn        1 MOL      0.281342
    138 H63        -7.3760   -1.4060   -3.3700 h1        1 MOL      0.021317
    139 H64        -4.3880   -0.6890   -2.9930 hc        1 MOL      0.158380
    140 H65        -5.1180   -1.6600   -4.3200 hc        1 MOL      0.158380
    141 H66        -5.5180    0.0300   -3.9970 hc        1 MOL      0.158380
    142 N13        -7.5250   -3.0190   -1.2570 n         1 MOL     -0.492603
    143 C46        -7.6580   -4.1870   -0.4080 c3        1 MOL      0.379133
    144 C47        -6.3260   -4.6770    0.2170 c         1 MOL      0.306757
    145 O19        -6.0950   -5.8730    0.3450 o         1 MOL     -0.488293
    146 C48        -8.3190   -5.3300   -1.2340 c3        1 MOL     -0.436735
    147 H67        -8.3190   -2.3900   -1.2120 hn        1 MOL      0.238116
    148 H68        -8.2580   -4.0030    0.4780 h1        1 MOL      0.006949
    149 H69        -8.5210   -6.2550   -0.6920 hc        1 MOL      0.113666
    150 H70        -9.2990   -4.9340   -1.5110 hc        1 MOL      0.113666
    151 H71        -7.7120   -5.4230   -2.1400 hc        1 MOL      0.113666
    152 N14        -5.5040   -3.7340    0.6310 n         1 MOL      0.007133
    153 C49        -4.3620   -3.9530    1.4810 c3        1 MOL     -0.031791
    154 C50        -4.7970   -4.0210    2.9930 c         1 MOL      0.462316
    155 O20        -4.4420   -5.0050    3.6480 o         1 MOL     -0.507015
    156 C51        -3.2070   -2.9340    1.3060 c3        1 MOL      0.206445
    157 C52        -1.8370   -3.3510    1.8730 c3        1 MOL     -0.363741
    158 C53        -1.2350   -4.5310    1.0900 c         1 MOL      0.694870
    159 O21        -1.5400   -5.7390    1.4110 o         1 MOL     -0.675480
    160 O22        -0.4790   -4.2880    0.1180 o         1 MOL     -0.675480
    161 H72        -5.8290   -2.7820    0.5600 hn        1 MOL     -0.126439
    162 H73        -3.8910   -4.9180    1.2860 h1        1 MOL      0.111293
    163 H74        -3.4930   -1.9420    1.6290 hc        1 MOL     -0.017474
    164 H75        -3.0040   -2.9060    0.2350 hc        1 MOL     -0.017474
    165 H76        -1.9360   -3.5170    2.9460 hc        1 MOL      0.060540
    166 H77        -1.2420   -2.4470    1.8260 hc        1 MOL      0.060540
    167 N15        -5.6630   -3.1560    3.5230 n         1 MOL     -0.238792
    168 C54        -6.2620   -3.4050    4.8410 c3        1 MOL     -0.232581
    169 H78        -5.6070   -4.0550    5.4210 h1        1 MOL      0.101297
    170 H79        -6.3910   -2.4580    5.3670 h1        1 MOL      0.101297
    171 H80        -7.2320   -3.8860    4.7160 h1        1 MOL      0.101297
    172 H81        -5.9160   -2.3470    2.9930 hn        1 MOL      0.126583
    173 Ca1        -0.3510   -3.8270   -2.4280 Ca        1 MOL      1.743398
    174 O23        -2.9170   -4.6870   -2.1040 oh        1 MOL     -0.830941
    175 H82        -3.2340   -5.5740   -2.2320 ho        1 MOL      0.413287
    176 H83        -3.7140   -4.1720   -1.9320 ho        1 MOL      0.413287
    177 O24        -1.9600   -3.0180   -4.3180 oh        1 MOL     -0.830941
    178 H84        -2.4870   -3.6770   -4.7680 ho        1 MOL      0.413287
    179 H85        -2.2240   -2.1800   -4.7120 ho        1 MOL      0.413287
    180 O25         0.6460   -4.9180   -4.7690 oh        1 MOL     -0.830941
    181 H86         1.2660   -5.6370   -4.6690 ho        1 MOL      0.413287
    182 H87         1.0480   -4.3440   -5.4190 ho        1 MOL      0.413287
    183 O26         1.0210   -1.6860   -3.8070 oh        1 MOL     -0.830941
    184 H88         1.9570   -1.7430   -3.9560 ho        1 MOL      0.413287
    185 H89         0.7350   -0.9430   -4.3450 ho        1 MOL      0.413287
    186 O27        -0.9860   -1.5370   -1.1920 oh        1 MOL     -0.830941
    187 H90        -0.1070   -1.1720   -1.1300 ho        1 MOL      0.413287
    188 H91        -1.5600   -0.7750   -1.2220 ho        1 MOL      0.413287
    189 O28        -0.7050   -6.4450   -2.7720 oh        1 MOL     -0.830941
    190 H92        -0.7490   -6.9820   -3.5560 ho        1 MOL      0.413287
    191 H93        -1.0000   -7.0280   -2.0710 ho        1 MOL      0.413287
@<TRIPOS>BOND
     1    1    2 1   
     2    1    4 1   
     3    1    5 1   
     4    1    6 1   
     5    2    3 2   
     6    2    7 1   
     7    7    8 1   
     8    7   15 1   
     9    8    9 1   
    10    8   11 1   
    11    8   16 1   
    12    9   10 2   
    13    9   19 1   
    14   11   12 1   
    15   11   17 1   
    16   11   18 1   
    17   12   13 1   
    18   12   14 1   
    19   19   20 1   
    20   19   28 1   
    21   20   21 1   
    22   20   23 1   
    23   20   29 1   
    24   21   22 2   
    25   21   41 1   
    26   23   24 1   
    27   23   30 1   
    28   23   31 1   
    29   24   25 1   
    30   24   32 1   
    31   24   33 1   
    32   25   26 1   
    33   25   34 1   
    34   25   35 1   
    35   26   27 1   
    36   26   36 1   
    37   26   37 1   
    38   27   38 1   
    39   27   39 1   
    40   27   40 1   
    41   41   42 1   
    42   41   49 1   
    43   42   43 1   
    44   42   45 1   
    45   42   50 1   
    46   43   44 2   
    47   43   53 1   
    48   45   46 1   
    49   45   51 1   
    50   45   52 1   
    51   46   47 1   
    52   46   48 1   
    53   53   54 1   
    54   53   57 1   
    55   54   55 1   
    56   54   58 1   
    57   54   59 1   
    58   55   56 2   
    59   55   60 1   
    60   60   61 1   
    61   60   68 1   
    62   61   62 1   
    63   61   64 1   
    64   61   69 1   
    65   62   63 2   
    66   62   74 1   
    67   64   65 1   
    68   64   70 1   
    69   64   71 1   
    70   65   66 1   
    71   65   67 2   
    72   66   72 1   
    73   66   73 1   
    74   74   75 1   
    75   74   78 1   
    76   75   76 1   
    77   75   79 1   
    78   75   80 1   
    79   76   77 2   
    80   76   81 1   
    81   81   82 1   
    82   81   93 1   
    83   82   83 1   
    84   82   85 1   
    85   82   94 1   
    86   83   84 2   
    87   83  102 1   
    88   85   86 1   
    89   85   95 1   
    90   85   96 1   
    91   86   87 ar  
    92   86   88 ar  
    93   87   89 ar  
    94   87   97 1   
    95   88   90 ar  
    96   88   98 1   
    97   89   91 ar  
    98   89   99 1   
    99   90   91 ar  
   100   90  100 1   
   101   91   92 1   
   102   92  101 1   
   103  102  103 1   
   104  102  110 1   
   105  103  104 1   
   106  103  106 1   
   107  103  111 1   
   108  104  105 2   
   109  104  121 1   
   110  106  107 1   
   111  106  108 1   
   112  106  112 1   
   113  107  109 1   
   114  107  113 1   
   115  107  114 1   
   116  108  115 1   
   117  108  116 1   
   118  108  117 1   
   119  109  118 1   
   120  109  119 1   
   121  109  120 1   
   122  121  122 1   
   123  121  127 1   
   124  122  123 1   
   125  122  125 1   
   126  122  128 1   
   127  123  124 2   
   128  123  132 1   
   129  125  126 1   
   130  125  129 1   
   131  125  130 1   
   132  126  131 1   
   133  132  133 1   
   134  132  137 1   
   135  133  134 1   
   136  133  136 1   
   137  133  138 1   
   138  134  135 2   
   139  134  142 1   
   140  136  139 1   
   141  136  140 1   
   142  136  141 1   
   143  142  143 1   
   144  142  147 1   
   145  143  144 1   
   146  143  146 1   
   147  143  148 1   
   148  144  145 2   
   149  144  152 1   
   150  146  149 1   
   151  146  150 1   
   152  146  151 1   
   153  152  153 1   
   154  152  161 1   
   155  153  154 1   
   156  153  156 1   
   157  153  162 1   
   158  154  155 2   
   159  154  167 1   
   160  156  157 1   
   161  156  163 1   
   162  156  164 1   
   163  157  158 1   
   164  157  165 1   
   165  157  166 1   
   166  158  159 1   
   167  158  160 1   
   168  167  168 1   
   169  167  172 1   
   170  168  169 1   
   171  168  170 1   
   172  168  171 1   
   173  174  175 1   
   174  174  176 1   
   175  177  178 1   
   176  177  179 1   
   177  180  181 1   
   178  180  182 1   
   179  183  184 1   
   180  183  185 1   
   181  186  187 1   
   182  186  188 1   
   183  189  190 1   
   184  189  191 1   
@<TRIPOS>SUBSTRUCTURE
     1 MOL         1 TEMP              0 ****  ****    0 ROOT
