@<TRIPOS>MOLECULE
MOL
  198   191     1     0     0
SMALL
resp


@<TRIPOS>ATOM
      1 C1         -3.9950    5.8970    1.8320 c3        1 MOL     -0.294140
      2 C2         -5.5430    5.6810    1.5330 c         1 MOL      0.630047
      3 O1         -5.9920    6.3680    0.5830 o         1 MOL     -0.551181
      4 H1         -3.8500    6.0490    2.9010 hc        1 MOL      0.073227
      5 H2         -3.4350    5.0180    1.5110 hc        1 MOL      0.073227
      6 H3         -3.6390    6.7730    1.2890 hc        1 MOL      0.073227
      7 N1         -6.2360    4.7430    2.1850 n         1 MOL     -0.664837
      8 C3         -7.6180    4.2700    1.8680 c3        1 MOL      0.290026
      9 C4         -7.6850    3.6800    0.4480 c         1 MOL      0.526201
     10 O2         -6.6700    3.6740   -0.2850 o         1 MOL     -0.492564
     11 C5         -8.6800    5.4240    2.1590 c3        1 MOL     -0.177046
     12 C6        -10.1640    5.0770    2.1250 c         1 MOL      0.688020
     13 O3        -10.4980    3.8810    2.2510 o         1 MOL     -0.694921
     14 O4        -10.9780    5.9820    2.2730 o         1 MOL     -0.694921
     15 H4         -5.6910    4.2500    2.8810 hn        1 MOL      0.336163
     16 H5         -7.7800    3.4530    2.5770 h1        1 MOL      0.023048
     17 H6         -8.4460    6.3610    1.6640 hc        1 MOL      0.036965
     18 H7         -8.4650    5.5810    3.2180 hc        1 MOL      0.036965
     19 N2         -8.8660    3.0770    0.1030 n         1 MOL     -0.435664
     20 C7         -9.1650    2.3580   -1.1330 c3        1 MOL     -0.007077
     21 C8         -8.2830    1.1370   -1.5180 c         1 MOL      0.637188
     22 O5         -8.8070    0.3170   -2.1740 o         1 MOL     -0.587378
     23 C9         -9.3190    3.4300   -2.2400 c3        1 MOL     -0.448835
     24 C10       -10.3840    4.5040   -1.8840 c3        1 MOL      0.456823
     25 C11       -10.6690    5.4050   -3.0740 c3        1 MOL     -0.184824
     26 C12       -11.4890    6.6750   -2.6790 c3        1 MOL     -0.130894
     27 N3        -12.9080    6.4340   -2.4420 n4        1 MOL     -0.315454
     28 H8         -9.5820    3.0360    0.8250 hn        1 MOL      0.220904
     29 H9        -10.1840    1.9920   -0.9740 h1        1 MOL      0.110702
     30 H10        -9.5050    2.9460   -3.1960 hc        1 MOL      0.128919
     31 H11        -8.3370    3.8980   -2.3050 hc        1 MOL      0.128919
     32 H12       -10.0170    5.0600   -1.0230 hc        1 MOL     -0.071733
     33 H13       -11.3000    4.0110   -1.5420 hc        1 MOL     -0.071733
     34 H14       -11.1610    4.8540   -3.8660 hc        1 MOL      0.064702
     35 H15        -9.7370    5.7840   -3.4890 hc        1 MOL      0.064702
     36 H16       -11.4230    7.2310   -3.6160 hx        1 MOL      0.146103
     37 H17       -11.1060    7.2160   -1.8160 hx        1 MOL      0.146103
     38 H18       -13.1540    5.6780   -1.8180 hn        1 MOL      0.318947
     39 H19       -13.4700    7.1670   -2.0360 hn        1 MOL      0.318947
     40 H20       -13.2850    6.1160   -3.3330 hn        1 MOL      0.318947
     41 N4         -7.1100    0.9510   -0.9160 n         1 MOL     -0.526792
     42 C13        -6.3540   -0.2600   -1.0240 c3        1 MOL      0.325017
     43 C14        -6.1940   -0.9450    0.3350 c         1 MOL      0.383929
     44 O6         -5.6740   -0.3940    1.3210 o         1 MOL     -0.541953
     45 C15        -4.9540    0.2000   -1.4960 c3        1 MOL      0.004734
     46 C16        -3.9660   -0.8870   -1.9960 c         1 MOL      0.607130
     47 O7         -4.3290   -2.0990   -2.1210 o         1 MOL     -0.741425
     48 O8         -2.7820   -0.5290   -2.2730 o         1 MOL     -0.741425
     49 H21        -6.6820    1.6880   -0.3770 hn        1 MOL      0.204727
     50 H22        -6.7460   -0.9310   -1.7920 h1        1 MOL      0.011924
     51 H23        -4.4250    0.7130   -0.6960 hc        1 MOL      0.037861
     52 H24        -5.0580    0.9290   -2.3020 hc        1 MOL      0.037861
     53 N5         -6.4830   -2.2450    0.6020 n         1 MOL     -0.307624
     54 C17        -6.6710   -3.3300   -0.3210 c3        1 MOL     -0.083829
     55 C18        -5.8520   -4.6150    0.0030 c         1 MOL      0.473186
     56 O9         -5.9640   -5.2840    1.0570 o         1 MOL     -0.551538
     57 H25        -6.5350   -2.5190    1.5720 hn        1 MOL      0.269517
     58 H26        -6.3380   -2.9600   -1.2930 h1        1 MOL      0.071866
     59 H27        -7.7220   -3.5960   -0.3220 h1        1 MOL      0.071866
     60 N6         -4.8860   -4.9820   -0.8630 n         1 MOL     -0.227533
     61 C19        -3.8770   -6.0370   -0.7230 c3        1 MOL      0.082452
     62 C20        -2.4760   -5.4290   -0.3990 c         1 MOL      0.080178
     63 O10        -2.2440   -4.2750   -0.7270 o         1 MOL     -0.465760
     64 C21        -3.7820   -6.9570   -1.9590 c3        1 MOL     -0.274581
     65 C22        -3.6640   -6.2440   -3.3050 c         1 MOL      0.839071
     66 O11        -3.3560   -5.0330   -3.4980 o         1 MOL     -0.728577
     67 O12        -3.8210   -6.8730   -4.3590 o         1 MOL     -0.728577
     68 H28        -4.7810   -4.4510   -1.7170 hn        1 MOL      0.160427
     69 H29        -4.1240   -6.6270    0.1630 h1        1 MOL      0.090727
     70 H30        -4.7620   -7.4250   -1.9940 hc        1 MOL      0.070056
     71 H31        -3.0190   -7.7000   -1.7260 hc        1 MOL      0.070056
     72 N7         -1.5100   -6.2240    0.1370 n         1 MOL     -0.255730
     73 C23        -0.1820   -5.7870    0.6140 c3        1 MOL     -0.044638
     74 C24        -0.2070   -4.9210    1.8660 c         1 MOL      0.537504
     75 O13         0.6520   -5.0820    2.6750 o         1 MOL     -0.555715
     76 H32        -1.8640   -7.1390    0.4030 hn        1 MOL      0.295997
     77 H33         0.2830   -5.1730   -0.1530 h1        1 MOL      0.047813
     78 H34         0.4500   -6.6640    0.7900 h1        1 MOL      0.047813
     79 N8         -1.2160   -4.0630    2.0250 n         1 MOL     -0.119308
     80 C25        -1.4350   -3.1430    3.1920 c3        1 MOL     -0.366703
     81 C26        -0.9870   -1.7950    2.7080 c         1 MOL      0.705189
     82 O14        -1.4690   -1.3050    1.6670 o         1 MOL     -0.492833
     83 C27        -2.8370   -3.1400    3.7320 c3        1 MOL      0.465144
     84 C28        -3.8820   -2.8860    2.6340 c3        1 MOL     -0.530960
     85 O15        -3.1150   -4.4170    4.1580 oh        1 MOL     -0.614028
     86 H35        -1.9730   -3.9900    1.3540 hn        1 MOL      0.142257
     87 H36        -0.8190   -3.3630    4.0650 h1        1 MOL      0.098028
     88 H37        -2.9430   -2.4050    4.5310 h1        1 MOL     -0.016525
     89 H38        -2.3710   -4.6750    4.7180 ho        1 MOL      0.386985
     90 H39        -3.8170   -3.6160    1.8130 hc        1 MOL      0.189167
     91 H40        -4.8550   -3.1230    3.0580 hc        1 MOL      0.189167
     92 H41        -3.7810   -1.8960    2.1890 hc        1 MOL      0.189167
     93 N9         -0.1150   -1.0740    3.3930 n         1 MOL     -0.502261
     94 C29         0.2300    0.3360    3.0900 c3        1 MOL     -0.562205
     95 C30         1.5950    0.4790    2.4120 c         1 MOL      0.700903
     96 O16         1.9370    1.4610    1.7480 o         1 MOL     -0.560839
     97 C31        -0.0060    1.3260    4.2680 c3        1 MOL      0.518460
     98 C32         0.9490    1.1660    5.4000 c3        1 MOL     -0.023311
     99 C33        -1.4470    1.2760    4.6900 c3        1 MOL     -0.099171
    100 C34         0.8940    2.4030    6.3160 c3        1 MOL     -0.258586
    101 H42         0.3660   -1.4320    4.2030 hn        1 MOL      0.321057
    102 H43        -0.4300    0.5570    2.2420 h1        1 MOL      0.225419
    103 H44         0.1160    2.3370    3.8920 hc        1 MOL     -0.042431
    104 H45         1.9440    1.2100    4.9630 hc        1 MOL      0.014527
    105 H46         0.7310    0.2440    5.9570 hc        1 MOL      0.014527
    106 H47        -1.6930    2.2540    5.1070 hc        1 MOL      0.008346
    107 H48        -2.1030    1.0920    3.8410 hc        1 MOL      0.008346
    108 H49        -1.5960    0.5840    5.5150 hc        1 MOL      0.008346
    109 H50        -0.0680    2.3460    6.8140 hc        1 MOL      0.064015
    110 H51         1.7040    2.3980    7.0420 hc        1 MOL      0.064015
    111 H52         1.0330    3.2990    5.7130 hc        1 MOL      0.064015
    112 N10         2.3560   -0.6130    2.3900 n         1 MOL     -0.544110
    113 C35         3.5370   -0.8870    1.4630 c3        1 MOL      0.139213
    114 C36         4.7580   -1.3510    2.2750 c         1 MOL      0.577087
    115 O17         4.6710   -1.9690    3.3580 o         1 MOL     -0.540173
    116 C37         3.1580   -1.9140    0.3380 c3        1 MOL      0.181917
    117 C38         2.1330   -3.0300    0.6800 c3        1 MOL     -0.302261
    118 O18         2.4730   -1.1720   -0.7010 oh        1 MOL     -0.584588
    119 H53         2.0110   -1.3930    2.9220 hn        1 MOL      0.262377
    120 H54         3.7620    0.1170    1.0900 h1        1 MOL      0.052514
    121 H55         4.0590   -2.3130   -0.1250 h1        1 MOL      0.033935
    122 H56         3.0750   -0.4520   -0.9260 ho        1 MOL      0.393297
    123 H57         2.5590   -3.5950    1.5040 hc        1 MOL      0.106593
    124 H58         1.1940   -2.5250    0.9250 hc        1 MOL      0.106593
    125 H59         2.0420   -3.7280   -0.1590 hc        1 MOL      0.106593
    126 N11         5.8870   -1.0410    1.6860 n         1 MOL     -0.482293
    127 C39         7.2120   -1.2820    2.3140 c3        1 MOL     -0.019164
    128 C40         8.2910   -0.2300    2.0340 c         1 MOL      0.593346
    129 O19         8.8690    0.2860    2.9880 o         1 MOL     -0.519595
    130 C41         7.6330   -2.7630    2.0410 c3        1 MOL      0.227413
    131 C42         9.1170   -2.8520    2.5100 c3        1 MOL     -0.467394
    132 O20         7.6230   -2.8910    0.5990 oh        1 MOL     -0.621597
    133 H60         5.8330   -0.5800    0.7840 hn        1 MOL      0.254382
    134 H61         7.0330   -1.2120    3.3920 h1        1 MOL      0.102779
    135 H62         6.9840   -3.4690    2.5660 h1        1 MOL      0.084216
    136 H63         8.0410   -3.7400    0.4840 ho        1 MOL      0.405086
    137 H64         9.3710   -3.9130    2.4640 hc        1 MOL      0.128406
    138 H65         9.9020   -2.3580    1.9340 hc        1 MOL      0.128406
    139 H66         9.2070   -2.4850    3.5300 hc        1 MOL      0.128406
    140 N12         8.5450    0.0320    0.7020 n         1 MOL     -0.492422
    141 C43         9.5380    1.0110    0.1650 c3        1 MOL     -0.040634
    142 C44         8.9810    1.8130   -1.0120 c         1 MOL      0.482055
    143 O21         8.4110    1.3070   -2.0050 o         1 MOL     -0.502101
    144 C45        10.7140    0.1520   -0.2470 c3        1 MOL      0.012183
    145 C46        12.0230    0.9310   -0.2020 c3        1 MOL      0.241742
    146 C47        13.2590    0.0590   -0.6530 c3        1 MOL     -0.119610
    147 C48        14.5940    0.8290   -0.7300 c3        1 MOL      0.065703
    148 N13        14.5600    1.9320   -1.7500 n4        1 MOL     -0.394674
    149 H67         7.9720   -0.4080   -0.0050 hn        1 MOL      0.319397
    150 H68         9.8860    1.6880    0.9410 h1        1 MOL      0.078526
    151 H69        10.4740   -0.2300   -1.2370 hc        1 MOL      0.018154
    152 H70        10.7960   -0.7450    0.3690 hc        1 MOL      0.018154
    153 H71        12.2790    1.2840    0.7880 hc        1 MOL     -0.030887
    154 H72        11.9690    1.7900   -0.8740 hc        1 MOL     -0.030887
    155 H73        12.9670   -0.3990   -1.5950 hc        1 MOL      0.024138
    156 H74        13.4040   -0.6570    0.1610 hc        1 MOL      0.024138
    157 H75        15.3600    0.0940   -0.9570 hx        1 MOL      0.062386
    158 H76        14.8670    1.2130    0.2550 hx        1 MOL      0.062386
    159 H77        14.5300    1.5130   -2.6650 hn        1 MOL      0.319995
    160 H78        13.7770    2.5750   -1.7910 hn        1 MOL      0.319995
    161 H79        15.4270    2.4440   -1.6550 hn        1 MOL      0.319995
    162 N14         9.3090    3.0880   -0.9720 n         1 MOL     -0.326945
    163 C49         9.2290    4.0040   -2.0970 c3        1 MOL      0.272542
    164 C50         7.7550    4.4200   -2.3400 c         1 MOL      0.320022
    165 O22         7.2790    4.0830   -3.4400 o         1 MOL     -0.506176
    166 C51        10.0420    5.2860   -1.8830 c3        1 MOL     -0.154664
    167 C52        11.3580    5.3130   -2.6920 c3        1 MOL     -0.145374
    168 C53        12.3390    4.2220   -2.3230 c         1 MOL      0.627736
    169 O23        12.7680    4.0800   -1.1210 o         1 MOL     -0.693985
    170 O24        12.7280    3.4460   -3.2550 o         1 MOL     -0.693985
    171 H80         9.5390    3.4910   -0.0770 hn        1 MOL      0.224145
    172 H81         9.6330    3.5070   -2.9800 h1        1 MOL      0.059866
    173 H82        10.3090    5.5750   -0.8610 hc        1 MOL      0.054749
    174 H83         9.4520    6.1260   -2.2520 hc        1 MOL      0.054749
    175 H84        11.7350    6.3340   -2.7460 hc        1 MOL      0.062746
    176 H85        11.0360    5.2100   -3.7320 hc        1 MOL      0.062746
    177 N15         6.9440    5.1460   -1.4870 n         1 MOL     -0.363901
    178 C54         7.2580    5.4790   -0.0770 c3        1 MOL     -0.058955
    179 H86         7.2650    6.5620    0.0480 h1        1 MOL      0.058729
    180 H87         6.5030    5.0440    0.5770 h1        1 MOL      0.058729
    181 H88         8.2380    5.0780    0.1820 h1        1 MOL      0.058729
    182 H89         6.1000    5.5440   -1.8590 hn        1 MOL      0.312491
    183 Ca1        -1.8260   -2.8530   -2.9970 Ca        1 MOL      1.773430
    184 O25        -2.7830   -1.1960   -5.2580 oh        1 MOL     -0.805937
    185 H90        -3.6790   -0.8700   -5.3740 ho        1 MOL      0.402339
    186 H91        -2.4330   -1.2430   -6.1460 ho        1 MOL      0.402339
    187 O26        -0.3330   -1.8720   -0.9240 oh        1 MOL     -0.805937
    188 H92        -0.4960   -1.7040    0.0100 ho        1 MOL      0.402339
    189 H93         0.5810   -1.5980   -1.0600 ho        1 MOL      0.402339
    190 O27         0.5680   -1.6680   -3.8730 oh        1 MOL     -0.805937
    191 H94         1.0030   -0.8150   -3.9540 ho        1 MOL      0.402339
    192 H95         1.1440   -2.2730   -4.3340 ho        1 MOL      0.402339
    193 O28        -1.1030   -4.0460   -5.2710 oh        1 MOL     -0.805937
    194 H96        -1.8340   -4.6070   -5.5340 ho        1 MOL      0.402339
    195 H97        -0.3940   -4.2700   -5.8750 ho        1 MOL      0.402339
    196 O29        -0.2320   -5.3640   -2.4830 oh        1 MOL     -0.805937
    197 H98         0.6850   -5.6490   -2.4830 ho        1 MOL      0.402339
    198 H99        -0.7220   -6.1460   -2.2030 ho        1 MOL      0.402339
@<TRIPOS>BOND
     1    1    2 1   
     2    1    4 1   
     3    1    5 1   
     4    1    6 1   
     5    2    3 2   
     6    2    7 1   
     7    7    8 1   
     8    7   15 1   
     9    8    9 1   
    10    8   11 1   
    11    8   16 1   
    12    9   10 2   
    13    9   19 1   
    14   11   12 1   
    15   11   17 1   
    16   11   18 1   
    17   12   13 1   
    18   12   14 1   
    19   19   20 1   
    20   19   28 1   
    21   20   21 1   
    22   20   23 1   
    23   20   29 1   
    24   21   22 2   
    25   21   41 1   
    26   23   24 1   
    27   23   30 1   
    28   23   31 1   
    29   24   25 1   
    30   24   32 1   
    31   24   33 1   
    32   25   26 1   
    33   25   34 1   
    34   25   35 1   
    35   26   27 1   
    36   26   36 1   
    37   26   37 1   
    38   27   38 1   
    39   27   39 1   
    40   27   40 1   
    41   41   42 1   
    42   41   49 1   
    43   42   43 1   
    44   42   45 1   
    45   42   50 1   
    46   43   44 2   
    47   43   53 1   
    48   45   46 1   
    49   45   51 1   
    50   45   52 1   
    51   46   47 1   
    52   46   48 1   
    53   53   54 1   
    54   53   57 1   
    55   54   55 1   
    56   54   58 1   
    57   54   59 1   
    58   55   56 2   
    59   55   60 1   
    60   60   61 1   
    61   60   68 1   
    62   61   62 1   
    63   61   64 1   
    64   61   69 1   
    65   62   63 2   
    66   62   72 1   
    67   64   65 1   
    68   64   70 1   
    69   64   71 1   
    70   65   66 1   
    71   65   67 1   
    72   72   73 1   
    73   72   76 1   
    74   73   74 1   
    75   73   77 1   
    76   73   78 1   
    77   74   75 2   
    78   74   79 1   
    79   79   80 1   
    80   79   86 1   
    81   80   81 1   
    82   80   83 1   
    83   80   87 1   
    84   81   82 2   
    85   81   93 1   
    86   83   84 1   
    87   83   85 1   
    88   83   88 1   
    89   84   90 1   
    90   84   91 1   
    91   84   92 1   
    92   85   89 1   
    93   93   94 1   
    94   93  101 1   
    95   94   95 1   
    96   94   97 1   
    97   94  102 1   
    98   95   96 2   
    99   95  112 1   
   100   97   98 1   
   101   97   99 1   
   102   97  103 1   
   103   98  100 1   
   104   98  104 1   
   105   98  105 1   
   106   99  106 1   
   107   99  107 1   
   108   99  108 1   
   109  100  109 1   
   110  100  110 1   
   111  100  111 1   
   112  112  113 1   
   113  112  119 1   
   114  113  114 1   
   115  113  116 1   
   116  113  120 1   
   117  114  115 2   
   118  114  126 1   
   119  116  117 1   
   120  116  118 1   
   121  116  121 1   
   122  117  123 1   
   123  117  124 1   
   124  117  125 1   
   125  118  122 1   
   126  126  127 1   
   127  126  133 1   
   128  127  128 1   
   129  127  130 1   
   130  127  134 1   
   131  128  129 2   
   132  128  140 1   
   133  130  131 1   
   134  130  132 1   
   135  130  135 1   
   136  131  137 1   
   137  131  138 1   
   138  131  139 1   
   139  132  136 1   
   140  140  141 1   
   141  140  149 1   
   142  141  142 1   
   143  141  144 1   
   144  141  150 1   
   145  142  143 2   
   146  142  162 1   
   147  144  145 1   
   148  144  151 1   
   149  144  152 1   
   150  145  146 1   
   151  145  153 1   
   152  145  154 1   
   153  146  147 1   
   154  146  155 1   
   155  146  156 1   
   156  147  148 1   
   157  147  157 1   
   158  147  158 1   
   159  148  159 1   
   160  148  160 1   
   161  148  161 1   
   162  162  163 1   
   163  162  171 1   
   164  163  164 1   
   165  163  166 1   
   166  163  172 1   
   167  164  165 2   
   168  164  177 1   
   169  166  167 1   
   170  166  173 1   
   171  166  174 1   
   172  167  168 1   
   173  167  175 1   
   174  167  176 1   
   175  168  169 1   
   176  168  170 1   
   177  177  178 1   
   178  177  182 1   
   179  178  179 1   
   180  178  180 1   
   181  178  181 1   
   182  184  185 1   
   183  184  186 1   
   184  187  188 1   
   185  187  189 1   
   186  190  191 1   
   187  190  192 1   
   188  193  194 1   
   189  193  195 1   
   190  196  197 1   
   191  196  198 1   
@<TRIPOS>SUBSTRUCTURE
     1 MOL         1 TEMP              0 ****  ****    0 ROOT
