@<TRIPOS>MOLECULE
MOL
  190   183     1     0     0
SMALL
resp


@<TRIPOS>ATOM
      1 C1          3.0030   -1.6430    3.6820 c3        1 MOL     -0.647474
      2 C2          4.2820   -0.8470    3.3720 c         1 MOL      0.868714
      3 O1          4.2840    0.3040    3.0650 o         1 MOL     -0.606318
      4 H1          3.0960   -2.1140    4.6610 hc        1 MOL      0.164997
      5 H2          2.1460   -0.9690    3.6830 hc        1 MOL      0.164997
      6 H3          2.8600   -2.4120    2.9220 hc        1 MOL      0.164997
      7 N1          5.3610   -1.5690    3.3200 n         1 MOL     -0.723433
      8 C3          6.7210   -0.9860    3.0130 c3        1 MOL      0.021821
      9 C4          7.4700   -1.7400    1.9360 c         1 MOL      0.703142
     10 O2          8.2880   -1.0520    1.2400 o         1 MOL     -0.595404
     11 C5          7.5850   -0.6020    4.1930 c3        1 MOL      0.006516
     12 C6          8.0660   -1.7510    5.1300 c         1 MOL      0.616063
     13 O3          8.7180   -1.4260    6.1720 o         1 MOL     -0.697124
     14 O4          8.1020   -2.9300    4.7390 o         1 MOL     -0.697124
     15 H4          5.3620   -2.4090    3.8720 hn        1 MOL      0.307081
     16 H5          6.4750    0.0160    2.6480 h1        1 MOL      0.112565
     17 H6          7.1260    0.0750    4.9140 hc        1 MOL     -0.011688
     18 H7          8.3820    0.0630    3.8620 hc        1 MOL     -0.011688
     19 N2          7.2690   -3.0280    1.7030 n         1 MOL     -0.576712
     20 C7          7.6370   -3.7360    0.4440 c3        1 MOL      0.274292
     21 C8          7.2800   -2.9310   -0.7950 c         1 MOL      0.404121
     22 O5          8.0540   -2.6350   -1.7230 o         1 MOL     -0.515330
     23 C9          9.1590   -4.1010    0.5430 c3        1 MOL     -0.221874
     24 H8          6.9490   -3.6270    2.4480 hn        1 MOL      0.298644
     25 H9          7.2660   -4.7540    0.3180 h1        1 MOL      0.030860
     26 H10         9.5100   -4.8810   -0.1330 hc        1 MOL      0.057075
     27 H11         9.6750   -3.2160    0.1900 hc        1 MOL      0.057075
     28 H12         9.4690   -4.3340    1.5650 hc        1 MOL      0.057075
     29 N3          6.0160   -2.4920   -0.8260 n         1 MOL     -0.195654
     30 C10         5.3580   -1.7550   -1.9460 c3        1 MOL      0.044242
     31 C11         6.0480   -0.4080   -2.2890 c         1 MOL      0.364420
     32 O6          6.1200    0.0360   -3.4090 o         1 MOL     -0.474695
     33 C12         5.2710   -2.7150   -3.2320 c3        1 MOL      0.043065
     34 C13         4.7700   -4.1660   -3.0660 c         1 MOL      0.565348
     35 O7          4.2530   -4.4870   -2.0000 o         1 MOL     -0.688264
     36 O8          5.0320   -4.9710   -4.0220 o         1 MOL     -0.688264
     37 H13         5.5040   -2.9220   -0.0740 hn        1 MOL      0.132985
     38 H14         4.3230   -1.5560   -1.6720 h1        1 MOL     -0.030884
     39 H15         6.1580   -2.6340   -3.8510 hc        1 MOL     -0.012676
     40 H16         4.5580   -2.2620   -3.9270 hc        1 MOL     -0.012676
     41 N4          6.4840    0.3240   -1.2320 n         1 MOL      0.032321
     42 C14         7.0580    1.6390   -1.2410 c3        1 MOL     -0.321868
     43 C15         6.1570    2.7530   -1.8140 c         1 MOL      0.619566
     44 O9          6.6470    3.7590   -2.3030 o         1 MOL     -0.588096
     45 H17         6.4130   -0.0690   -0.3070 hn        1 MOL      0.066932
     46 H18         7.9450    1.5930   -1.8800 h1        1 MOL      0.131380
     47 H19         7.1870    1.9400   -0.1990 h1        1 MOL      0.131380
     48 N5          4.8610    2.5060   -1.7590 n         1 MOL     -0.239550
     49 C16         3.7330    3.1620   -2.3810 c3        1 MOL     -0.138638
     50 C17         3.5050    4.5270   -1.6720 c         1 MOL      0.538601
     51 O10         3.4400    4.5860   -0.4540 o         1 MOL     -0.530325
     52 C18         2.4400    2.3580   -2.4140 c3        1 MOL     -0.209855
     53 C19         2.4850    1.1360   -3.2870 c         1 MOL      0.553180
     54 N6          2.2360   -0.0680   -2.7860 n         1 MOL     -0.538041
     55 O11         2.6510    1.2500   -4.4870 o         1 MOL     -0.543997
     56 H20         4.6490    1.6320   -1.2990 hn        1 MOL      0.147832
     57 H21         3.9900    3.3970   -3.4150 h1        1 MOL      0.100406
     58 H22         1.6360    3.0750   -2.5740 hc        1 MOL      0.111328
     59 H23         2.3380    1.9610   -1.4000 hc        1 MOL      0.111328
     60 H24         2.0300   -0.2250   -1.8090 hn        1 MOL      0.330871
     61 H25         2.2300   -0.8850   -3.3770 hn        1 MOL      0.330871
     62 N7          3.2400    5.5500   -2.4100 n         1 MOL     -0.345760
     63 C20         2.8670    6.9050   -1.9230 c3        1 MOL     -0.084261
     64 C21         1.3810    7.1270   -1.6570 c         1 MOL      0.550703
     65 O12         0.3930    6.7540   -2.3880 o         1 MOL     -0.513361
     66 H26         3.3880    5.4390   -3.3990 hn        1 MOL      0.276528
     67 H27         3.1560    7.7000   -2.6130 h1        1 MOL      0.089530
     68 H28         3.3850    7.0800   -0.9820 h1        1 MOL      0.089530
     69 N8          1.0840    7.8470   -0.5290 n         1 MOL     -0.418959
     70 C22        -0.2370    8.1970   -0.0710 c3        1 MOL     -0.218019
     71 C23        -1.1190    7.0520    0.4960 c         1 MOL      0.465512
     72 O13        -2.0860    7.3250    1.2190 o         1 MOL     -0.568631
     73 C24        -0.2480    9.3440    0.9380 c3        1 MOL      0.436288
     74 C25         0.5850    9.1710    2.2700 c3        1 MOL     -0.431796
     75 O14         0.3490   10.4770    0.3650 oh        1 MOL     -0.612820
     76 H29         1.8830    8.3120   -0.1130 hn        1 MOL      0.248679
     77 H30        -0.7330    8.6140   -0.9400 h1        1 MOL      0.154305
     78 H31        -1.2410    9.6250    1.2820 h1        1 MOL      0.069261
     79 H32         1.2830   10.2370    0.4100 ho        1 MOL      0.359439
     80 H33         0.1390    8.4150    2.9220 hc        1 MOL      0.109761
     81 H34         1.5740    8.7260    2.2470 hc        1 MOL      0.109761
     82 H35         0.5150   10.0470    2.9130 hc        1 MOL      0.109761
     83 N9         -0.7450    5.7820    0.3030 n         1 MOL     -0.197977
     84 C26        -1.3060    4.5530    0.9180 c3        1 MOL     -0.026763
     85 C27        -1.2850    3.3540   -0.0820 c         1 MOL      0.474160
     86 O15        -0.6680    3.4310   -1.1350 o         1 MOL     -0.477010
     87 C28        -0.5300    4.1840    2.2200 c3        1 MOL      0.050734
     88 C29         0.8940    3.7670    1.9460 c3        1 MOL      0.016619
     89 C30        -0.5830    5.3030    3.2350 c3        1 MOL     -0.224744
     90 C31         1.6920    3.3580    3.1590 c3        1 MOL     -0.270428
     91 H36        -0.0020    5.6400   -0.3630 hn        1 MOL      0.187759
     92 H37        -2.3710    4.6520    1.1130 h1        1 MOL      0.082307
     93 H38        -1.0530    3.3960    2.7630 hc        1 MOL      0.034442
     94 H39         1.5000    4.5040    1.4060 hc        1 MOL      0.060033
     95 H40         0.8740    2.8650    1.3430 hc        1 MOL      0.060033
     96 H41        -1.5840    5.7440    3.2700 hc        1 MOL      0.057520
     97 H42        -0.4560    4.9020    4.2380 hc        1 MOL      0.057520
     98 H43         0.2180    6.0340    3.1030 hc        1 MOL      0.057520
     99 H44         1.1100    2.7140    3.8050 hc        1 MOL      0.064904
    100 H45         2.6060    2.8480    2.8460 hc        1 MOL      0.064904
    101 H46         1.9800    4.2750    3.6660 hc        1 MOL      0.064904
    102 N10        -1.9920    2.2850    0.2000 n         1 MOL     -0.569231
    103 C32        -2.2500    1.0890   -0.6110 c3        1 MOL      0.188779
    104 C33        -3.6700    0.5500   -0.5000 c         1 MOL      0.633317
    105 O16        -3.9670   -0.6450   -0.4190 o         1 MOL     -0.608040
    106 C34        -1.1330    0.1440   -0.2970 c3        1 MOL     -0.007884
    107 C35        -1.1170   -1.1020   -1.1760 c         1 MOL      0.609362
    108 O17        -0.7860   -2.2350   -0.6650 o         1 MOL     -0.732840
    109 O18        -1.4250   -0.9640   -2.3670 o         1 MOL     -0.732840
    110 H47        -2.5360    2.3260    1.0470 hn        1 MOL      0.264266
    111 H48        -2.1220    1.3240   -1.6660 h1        1 MOL      0.065514
    112 H49        -1.0900   -0.1710    0.7410 hc        1 MOL      0.000640
    113 H50        -0.1750    0.6090   -0.5300 hc        1 MOL      0.000640
    114 N11        -4.6220    1.4580   -0.4060 n         1 MOL     -0.582845
    115 C36        -6.0510    1.0480   -0.4550 c3        1 MOL      0.240316
    116 C37        -6.5950    0.1640    0.6490 c         1 MOL      0.402203
    117 O19        -6.3520    0.4180    1.8310 o         1 MOL     -0.478298
    118 C38        -6.8600    2.3400   -0.6580 c3        1 MOL     -0.255720
    119 C39        -8.2520    2.2080   -1.1460 ca        1 MOL      0.163857
    120 C40        -8.5980    2.2490   -2.5150 ca        1 MOL     -0.205452
    121 C41        -9.2390    2.0650   -0.1240 ca        1 MOL     -0.205452
    122 C42        -9.9490    2.0980   -2.9090 ca        1 MOL     -0.071577
    123 C43       -10.5940    1.9120   -0.5430 ca        1 MOL     -0.071577
    124 C44       -10.9330    1.8620   -1.9280 ca        1 MOL     -0.173370
    125 H51        -4.4440    2.4570   -0.4250 hn        1 MOL      0.313498
    126 H52        -6.1070    0.5600   -1.4290 h1        1 MOL      0.061644
    127 H53        -6.4030    2.9170   -1.4620 hc        1 MOL      0.091755
    128 H54        -6.8040    2.8270    0.3160 hc        1 MOL      0.091755
    129 H55        -7.7650    2.2920   -3.2070 ha        1 MOL      0.141324
    130 H56        -8.9690    2.2040    0.9180 ha        1 MOL      0.141324
    131 H57       -10.2050    2.1380   -3.9590 ha        1 MOL      0.110293
    132 H58       -11.3600    1.8210    0.2190 ha        1 MOL      0.110293
    133 H59       -11.9790    1.8340   -2.2000 ha        1 MOL      0.122252
    134 N12        -7.3180   -0.9140    0.2800 n         1 MOL     -0.280391
    135 C45        -7.9380   -1.8600    1.2840 c3        1 MOL      0.114405
    136 C46        -7.0550   -2.3940    2.4130 c         1 MOL      0.260217
    137 O20        -7.4470   -2.3970    3.5500 o         1 MOL     -0.488382
    138 C47        -8.3320   -3.0730    0.2580 c3        1 MOL     -0.008358
    139 C48        -8.8770   -2.2500   -0.9200 c3        1 MOL     -0.010490
    140 C49        -7.8300   -1.2240   -1.0200 c3        1 MOL      0.132847
    141 H60        -8.8230   -1.4980    1.8090 h1        1 MOL      0.062258
    142 H61        -7.5010   -3.6600   -0.1250 hc        1 MOL      0.009310
    143 H62        -9.1320   -3.6740    0.6810 hc        1 MOL      0.009310
    144 H63        -9.0580   -2.8350   -1.8200 hc        1 MOL      0.017512
    145 H64        -9.7430   -1.7050   -0.5560 hc        1 MOL      0.017512
    146 H65        -7.0360   -1.6300   -1.6370 h1        1 MOL     -0.028931
    147 H66        -8.0730   -0.3090   -1.5590 h1        1 MOL     -0.028931
    148 N13        -5.8150   -2.6750    2.0250 n         1 MOL     -0.009574
    149 C50        -4.9640   -3.4640    2.9400 c3        1 MOL     -0.315267
    150 C51        -4.3030   -2.5800    3.9760 c         1 MOL      0.460954
    151 O21        -3.6720   -3.1970    4.8770 o         1 MOL     -0.563834
    152 C52        -3.9790   -4.3790    2.2060 c3        1 MOL      0.100816
    153 C53        -4.7440   -5.3820    1.3320 c3        1 MOL     -0.352777
    154 C54        -3.7690   -6.2070    0.4480 c         1 MOL      0.765310
    155 O22        -2.5920   -5.8020    0.1640 o         1 MOL     -0.712418
    156 O23        -4.2570   -7.1350   -0.2110 o         1 MOL     -0.712418
    157 H67        -5.5350   -2.4740    1.0760 hn        1 MOL      0.245903
    158 H68        -5.5470   -4.2190    3.4720 h1        1 MOL      0.164144
    159 H69        -3.3330   -5.0090    2.8220 hc        1 MOL      0.044861
    160 H70        -3.3420   -3.7110    1.6310 hc        1 MOL      0.044861
    161 H71        -5.4790   -4.9080    0.6900 hc        1 MOL      0.072027
    162 H72        -5.2360   -6.0470    2.0360 hc        1 MOL      0.072027
    163 N14        -4.3720   -1.2800    3.8610 n         1 MOL     -0.134607
    164 C55        -3.9260   -0.1960    4.8090 c3        1 MOL     -0.225587
    165 H73        -4.3960    0.7460    4.5310 h1        1 MOL      0.100593
    166 H74        -4.2150   -0.4610    5.8260 h1        1 MOL      0.100593
    167 H75        -2.8420   -0.0900    4.7560 h1        1 MOL      0.100593
    168 H76        -4.8360   -0.8580    3.0690 hn        1 MOL      0.181733
    169 Ca1        -0.9690   -4.7570   -1.4270 Ca        1 MOL      1.723750
    170 O24         0.1110   -6.1160   -3.5260 oh        1 MOL     -0.811597
    171 H77         0.0330   -5.8790   -4.4440 ho        1 MOL      0.395241
    172 H78         0.7520   -6.8190   -3.5090 ho        1 MOL      0.395241
    173 O25        -3.4230   -3.0490   -1.7790 oh        1 MOL     -0.811597
    174 H79        -4.1860   -3.4540   -2.1850 ho        1 MOL      0.395241
    175 H80        -3.6180   -2.1170   -1.7700 ho        1 MOL      0.395241
    176 O26         0.3410   -4.7230    0.7940 oh        1 MOL     -0.811597
    177 H81         0.1820   -4.6550    1.7460 ho        1 MOL      0.395241
    178 H82         1.1950   -4.3180    0.6650 ho        1 MOL      0.395241
    179 O27        -0.9320   -3.1110   -3.6880 oh        1 MOL     -0.811597
    180 H83        -1.7650   -3.2750   -4.1470 ho        1 MOL      0.395241
    181 H84        -1.0690   -2.2720   -3.2420 ho        1 MOL      0.395241
    182 O28        -2.9520   -5.9910   -2.6750 oh        1 MOL     -0.811597
    183 H85        -3.3400   -6.4450   -1.9260 ho        1 MOL      0.395241
    184 H86        -3.6010   -6.0750   -3.3720 ho        1 MOL      0.395241
    185 O29         1.6070   -3.7930   -1.9120 oh        1 MOL     -0.811597
    186 H87         1.7710   -3.7880   -2.8580 ho        1 MOL      0.395241
    187 H88         2.4530   -4.0410   -1.5290 ho        1 MOL      0.395241
    188 O30         0.0580   -7.2620   -0.7900 oh        1 MOL     -0.811597
    189 H89         0.5470   -7.6650   -1.5100 ho        1 MOL      0.395241
    190 H90         0.6610   -7.2900   -0.0520 ho        1 MOL      0.395241
@<TRIPOS>BOND
     1    1    2 1   
     2    1    4 1   
     3    1    5 1   
     4    1    6 1   
     5    2    3 2   
     6    2    7 1   
     7    7    8 1   
     8    7   15 1   
     9    8    9 1   
    10    8   11 1   
    11    8   16 1   
    12    9   10 2   
    13    9   19 1   
    14   11   12 1   
    15   11   17 1   
    16   11   18 1   
    17   12   13 1   
    18   12   14 1   
    19   19   20 1   
    20   19   24 1   
    21   20   21 1   
    22   20   23 1   
    23   20   25 1   
    24   21   22 2   
    25   21   29 1   
    26   23   26 1   
    27   23   27 1   
    28   23   28 1   
    29   29   30 1   
    30   29   37 1   
    31   30   31 1   
    32   30   33 1   
    33   30   38 1   
    34   31   32 2   
    35   31   41 1   
    36   33   34 1   
    37   33   39 1   
    38   33   40 1   
    39   34   35 1   
    40   34   36 1   
    41   41   42 1   
    42   41   45 1   
    43   42   43 1   
    44   42   46 1   
    45   42   47 1   
    46   43   44 2   
    47   43   48 1   
    48   48   49 1   
    49   48   56 1   
    50   49   50 1   
    51   49   52 1   
    52   49   57 1   
    53   50   51 2   
    54   50   62 1   
    55   52   53 1   
    56   52   58 1   
    57   52   59 1   
    58   53   54 1   
    59   53   55 2   
    60   54   60 1   
    61   54   61 1   
    62   62   63 1   
    63   62   66 1   
    64   63   64 1   
    65   63   67 1   
    66   63   68 1   
    67   64   65 2   
    68   64   69 1   
    69   69   70 1   
    70   69   76 1   
    71   70   71 1   
    72   70   73 1   
    73   70   77 1   
    74   71   72 2   
    75   71   83 1   
    76   73   74 1   
    77   73   75 1   
    78   73   78 1   
    79   74   80 1   
    80   74   81 1   
    81   74   82 1   
    82   75   79 1   
    83   83   84 1   
    84   83   91 1   
    85   84   85 1   
    86   84   87 1   
    87   84   92 1   
    88   85   86 2   
    89   85  102 1   
    90   87   88 1   
    91   87   89 1   
    92   87   93 1   
    93   88   90 1   
    94   88   94 1   
    95   88   95 1   
    96   89   96 1   
    97   89   97 1   
    98   89   98 1   
    99   90   99 1   
   100   90  100 1   
   101   90  101 1   
   102  102  103 1   
   103  102  110 1   
   104  103  104 1   
   105  103  106 1   
   106  103  111 1   
   107  104  105 2   
   108  104  114 1   
   109  106  107 1   
   110  106  112 1   
   111  106  113 1   
   112  107  108 1   
   113  107  109 1   
   114  114  115 1   
   115  114  125 1   
   116  115  116 1   
   117  115  118 1   
   118  115  126 1   
   119  116  117 2   
   120  116  134 1   
   121  118  119 1   
   122  118  127 1   
   123  118  128 1   
   124  119  120 ar  
   125  119  121 ar  
   126  120  122 ar  
   127  120  129 1   
   128  121  123 ar  
   129  121  130 1   
   130  122  124 ar  
   131  122  131 1   
   132  123  124 ar  
   133  123  132 1   
   134  124  133 1   
   135  134  135 1   
   136  134  140 1   
   137  135  136 1   
   138  135  138 1   
   139  135  141 1   
   140  136  137 2   
   141  136  148 1   
   142  138  139 1   
   143  138  142 1   
   144  138  143 1   
   145  139  140 1   
   146  139  144 1   
   147  139  145 1   
   148  140  146 1   
   149  140  147 1   
   150  148  149 1   
   151  148  157 1   
   152  149  150 1   
   153  149  152 1   
   154  149  158 1   
   155  150  151 2   
   156  150  163 1   
   157  152  153 1   
   158  152  159 1   
   159  152  160 1   
   160  153  154 1   
   161  153  161 1   
   162  153  162 1   
   163  154  155 1   
   164  154  156 1   
   165  163  164 1   
   166  163  168 1   
   167  164  165 1   
   168  164  166 1   
   169  164  167 1   
   170  170  171 1   
   171  170  172 1   
   172  173  174 1   
   173  173  175 1   
   174  176  177 1   
   175  176  178 1   
   176  179  180 1   
   177  179  181 1   
   178  182  183 1   
   179  182  184 1   
   180  185  186 1   
   181  185  187 1   
   182  188  189 1   
   183  188  190 1   
@<TRIPOS>SUBSTRUCTURE
     1 MOL         1 TEMP              0 ****  ****    0 ROOT
