@<TRIPOS>MOLECULE
MOL
  184   179     1     0     0
SMALL
resp


@<TRIPOS>ATOM
      1 C1          3.4730   -2.3220    3.9900 c3        1 MOL     -0.321973
      2 C2          4.7810   -1.6540    3.4640 c         1 MOL      0.663715
      3 O1          4.8050   -0.4830    3.2030 o         1 MOL     -0.560979
      4 H1          3.7210   -3.2520    4.5020 hc        1 MOL      0.070057
      5 H2          2.9740   -1.6480    4.6860 hc        1 MOL      0.070057
      6 H3          2.8110   -2.5350    3.1520 hc        1 MOL      0.070057
      7 N1          5.8010   -2.5050    3.2370 n         1 MOL     -0.604839
      8 C3          6.9880   -2.0550    2.4900 c3        1 MOL      0.184025
      9 C4          6.6900   -2.2670    0.9570 c         1 MOL      0.650746
     10 O2          5.9830   -3.1880    0.5110 o         1 MOL     -0.576856
     11 C5          8.1780   -2.9220    2.9030 c3        1 MOL     -0.049196
     12 C6          9.5370   -2.6740    2.2540 c         1 MOL      0.730963
     13 O3          9.7250   -1.5960    1.6930 o         1 MOL     -0.732061
     14 O4         10.3230   -3.5990    2.3690 o         1 MOL     -0.732061
     15 H4          5.6690   -3.4440    3.5660 hn        1 MOL      0.313281
     16 H5          7.2910   -1.0340    2.7430 h1        1 MOL      0.040189
     17 H6          7.8150   -3.9240    2.6830 hc        1 MOL     -0.043745
     18 H7          8.2610   -2.8670    3.9940 hc        1 MOL     -0.043745
     19 N2          7.1790   -1.3050    0.1920 n         1 MOL     -0.738746
     20 C7          6.8840   -1.1130   -1.2320 c3        1 MOL      0.531056
     21 C8          5.4900   -0.4790   -1.5450 c         1 MOL      0.508418
     22 O5          4.7960   -0.0300   -0.6250 o         1 MOL     -0.513754
     23 C9          8.0120   -0.2850   -1.8450 c3        1 MOL     -0.372551
     24 H8          7.8850   -0.6740    0.5630 hn        1 MOL      0.342551
     25 H9          7.0050   -2.0510   -1.7700 h1        1 MOL     -0.023347
     26 H10         8.9920   -0.6050   -1.5130 hc        1 MOL      0.086171
     27 H11         7.9340   -0.3580   -2.9330 hc        1 MOL      0.086171
     28 H12         7.9150    0.7390   -1.4740 hc        1 MOL      0.086171
     29 N3          5.0850   -0.5380   -2.7860 n         1 MOL     -0.693359
     30 C10         3.6900   -0.2370   -3.2340 c3        1 MOL      0.350311
     31 C11         3.5120    1.2030   -3.7750 c         1 MOL      0.525007
     32 O6          4.4520    1.9630   -3.9790 o         1 MOL     -0.516964
     33 C12         3.1690   -1.3060   -4.2210 c3        1 MOL     -0.522964
     34 C13         3.3670   -2.8100   -3.7850 c         1 MOL      0.864315
     35 O7          4.2580   -3.3700   -4.4270 o         1 MOL     -0.709992
     36 O8          2.6000   -3.2780   -2.8970 o         1 MOL     -0.709992
     37 H13         5.7490   -0.9290   -3.4370 hn        1 MOL      0.351764
     38 H14         2.9830   -0.1270   -2.3990 h1        1 MOL      0.089595
     39 H15         3.6910   -1.1430   -5.1630 hc        1 MOL      0.082333
     40 H16         2.0930   -1.2890   -4.3940 hc        1 MOL      0.082333
     41 N4          2.2660    1.6740   -3.9580 n         1 MOL     -0.548648
     42 C14         1.9380    3.0900   -4.2810 c3        1 MOL     -0.036704
     43 C15         2.4340    4.1210   -3.1520 c         1 MOL      0.572529
     44 O9          3.1470    3.7260   -2.2360 o         1 MOL     -0.446945
     45 H17         1.5370    1.0240   -3.7070 hn        1 MOL      0.326213
     46 H18         0.8730    3.1810   -4.4770 h1        1 MOL      0.069057
     47 H19         2.4470    3.2360   -5.2360 h1        1 MOL      0.069057
     48 N5          1.9730    5.3600   -3.3150 n         1 MOL     -0.559871
     49 C16         2.1980    6.4200   -2.3650 c3        1 MOL      0.402626
     50 C17         1.4040    6.1450   -1.0490 c         1 MOL      0.499795
     51 O10         0.4740    5.3780   -1.0290 o         1 MOL     -0.464631
     52 C18         1.8510    7.7630   -3.0770 c3        1 MOL     -0.498478
     53 C19         2.6190    8.0450   -4.3080 c         1 MOL      0.799109
     54 N6          1.9440    7.9260   -5.4910 n         1 MOL     -0.873302
     55 O11         3.7520    8.3580   -4.3180 o         1 MOL     -0.543669
     56 H20         1.3410    5.5740   -4.0790 hn        1 MOL      0.249043
     57 H21         3.2240    6.4200   -1.9990 h1        1 MOL     -0.024793
     58 H22         1.9100    8.6070   -2.3840 hc        1 MOL      0.108319
     59 H23         0.8070    7.5840   -3.3320 hc        1 MOL      0.108319
     60 H24         0.9380    7.8470   -5.4270 hn        1 MOL      0.376260
     61 H25         2.4360    8.1590   -6.3420 hn        1 MOL      0.376260
     62 N7          1.8260    6.9470   -0.0530 n         1 MOL     -0.467598
     63 C20         1.3650    6.8120    1.3040 c3        1 MOL     -0.060766
     64 C21        -0.0430    7.2440    1.7130 c         1 MOL      0.591307
     65 O12        -0.5910    8.1390    1.0230 o         1 MOL     -0.542575
     66 H26         2.6230    7.5560   -0.1750 hn        1 MOL      0.328415
     67 H27         1.9950    7.4680    1.9130 h1        1 MOL      0.063381
     68 H28         1.4800    5.8420    1.7830 h1        1 MOL      0.063381
     69 N8         -0.6130    6.5330    2.6670 n         1 MOL     -0.462672
     70 C22        -2.0230    6.6020    3.1430 c3        1 MOL     -0.056578
     71 C23        -2.7410    5.2190    3.2070 c         1 MOL      0.484602
     72 O13        -4.0010    5.0870    3.1450 o         1 MOL     -0.565210
     73 C24        -2.0450    7.4240    4.4320 c3        1 MOL      0.324589
     74 C25        -1.6310    6.6220    5.7450 c3        1 MOL     -0.202442
     75 O14        -1.3160    8.6430    4.3930 oh        1 MOL     -0.622895
     76 H29         0.0520    5.8840    3.0720 hn        1 MOL      0.260483
     77 H30        -2.5860    7.1410    2.3990 h1        1 MOL      0.140607
     78 H31        -3.1260    7.6150    4.4750 h1        1 MOL      0.038077
     79 H32        -0.3530    8.5870    4.4290 ho        1 MOL      0.389639
     80 H33        -2.5380    6.1480    6.1180 hc        1 MOL      0.045776
     81 H34        -0.9880    5.7760    5.4760 hc        1 MOL      0.045776
     82 H35        -1.1880    7.2270    6.5410 hc        1 MOL      0.045776
     83 N9         -2.0000    4.1350    3.2250 n         1 MOL     -0.176361
     84 C26        -2.4450    2.7010    3.3340 c3        1 MOL     -0.186144
     85 C27        -1.7940    1.7150    2.3530 c         1 MOL      0.523402
     86 O15        -0.6340    1.7920    2.0950 o         1 MOL     -0.461937
     87 C28        -2.3720    2.0640    4.7730 c3        1 MOL      0.319916
     88 C29        -0.9720    2.0470    5.3700 c3        1 MOL     -0.045585
     89 C30        -3.3290    2.8750    5.7030 c3        1 MOL     -0.440989
     90 C31        -0.7440    0.9170    6.3760 c3        1 MOL      0.198397
     91 H36        -1.0240    4.3600    3.0680 hn        1 MOL      0.159727
     92 H37        -3.5020    2.6140    3.0790 h1        1 MOL      0.126009
     93 H38        -2.7980    1.0690    4.8470 hc        1 MOL     -0.011742
     94 H39        -0.7540    3.0030    5.8530 hc        1 MOL      0.008653
     95 H40        -0.2880    1.8460    4.5450 hc        1 MOL      0.008653
     96 H41        -3.3230    2.5320    6.7450 hc        1 MOL      0.098453
     97 H42        -2.9680    3.9050    5.7740 hc        1 MOL      0.098453
     98 H43        -4.3380    2.8940    5.2880 hc        1 MOL      0.098453
     99 H44         0.2250    1.0360    6.8640 hc        1 MOL     -0.061649
    100 H45        -1.5200    1.1440    7.0980 hc        1 MOL     -0.061649
    101 H46        -0.9150   -0.1040    6.0480 hc        1 MOL     -0.061649
    102 N10        -2.4950    0.5830    1.9760 n         1 MOL     -0.765149
    103 C32        -1.9770   -0.3810    1.0060 c3        1 MOL      0.745363
    104 C33        -3.1670   -0.8080    0.1470 c         1 MOL      0.225969
    105 O16        -3.7750   -1.8160    0.3760 o         1 MOL     -0.133775
    106 C34        -1.1420   -1.4870    1.5880 c3        1 MOL     -0.543155
    107 C35        -0.1340   -2.1770    0.7070 c         1 MOL      1.004492
    108 O17         0.5130   -3.1260    1.0750 o         1 MOL     -0.847536
    109 O18         0.1080   -1.6680   -0.4170 o         1 MOL     -0.847536
    110 H47        -3.4860    0.6310    2.1300 hn        1 MOL      0.307411
    111 H48        -1.3210    0.1840    0.3400 h1        1 MOL     -0.030087
    112 H49        -1.8030   -2.3220    1.8100 hc        1 MOL      0.110785
    113 H50        -0.6200   -1.2010    2.4940 hc        1 MOL      0.110785
    114 N11        -3.5960    0.0850   -0.7270 n         1 MOL     -0.553504
    115 C36        -4.8270   -0.1100   -1.5200 c3        1 MOL      0.552534
    116 C37        -5.9780   -0.9970   -0.8990 c         1 MOL      0.023178
    117 O19        -6.6610   -0.6610    0.0950 o         1 MOL     -0.460924
    118 C38        -5.3900    1.2810   -1.8400 c3        1 MOL     -0.346062
    119 C39        -6.2760    1.3420   -3.0690 ca        1 MOL      0.179569
    120 C40        -5.6120    1.1940   -4.2910 ca        1 MOL     -0.201126
    121 C41        -7.6880    1.4690   -3.0590 ca        1 MOL     -0.201126
    122 C42        -6.3160    1.0210   -5.4910 ca        1 MOL     -0.137020
    123 C43        -8.4180    1.4110   -4.2850 ca        1 MOL     -0.137020
    124 C44        -7.7050    1.1910   -5.4660 ca        1 MOL     -0.083665
    125 H51        -3.0470    0.9290   -0.7950 hn        1 MOL      0.304493
    126 H52        -4.4710   -0.5260   -2.4620 h1        1 MOL     -0.062495
    127 H53        -4.5920    1.9570   -2.1350 hc        1 MOL      0.104709
    128 H54        -5.9100    1.6930   -0.9790 hc        1 MOL      0.104709
    129 H55        -4.5360    1.1970   -4.3820 ha        1 MOL      0.145574
    130 H56        -8.1410    1.6320   -2.0980 ha        1 MOL      0.145574
    131 H57        -5.8170    0.7640   -6.4100 ha        1 MOL      0.121801
    132 H58        -9.5000    1.4080   -4.2490 ha        1 MOL      0.121801
    133 H59        -8.2270    1.1020   -6.4060 ha        1 MOL      0.086625
    134 N12        -6.3130   -2.1780   -1.5290 n         1 MOL      0.118802
    135 C45        -7.3050   -3.0790   -0.9840 c3        1 MOL      0.046428
    136 C46        -6.7110   -4.0000    0.0890 c         1 MOL      0.421651
    137 O20        -7.4260   -4.7110    0.7670 o         1 MOL     -0.527664
    138 C47        -7.7710   -3.7510   -2.3170 c3        1 MOL     -0.105743
    139 C48        -6.4500   -3.9500   -3.1260 c3        1 MOL     -0.026605
    140 C49        -5.7000   -2.6620   -2.7440 c3        1 MOL     -0.105916
    141 H60        -8.1960   -2.5780   -0.6210 h1        1 MOL      0.056441
    142 H61        -8.4270   -4.6070   -2.1660 hc        1 MOL      0.040765
    143 H62        -8.2910   -2.9350   -2.8370 hc        1 MOL      0.040765
    144 H63        -5.8590   -4.8270   -2.8530 hc        1 MOL      0.025996
    145 H64        -6.6220   -3.9020   -4.1980 hc        1 MOL      0.025996
    146 H65        -4.6870   -2.9840   -2.4850 h1        1 MOL      0.068172
    147 H66        -5.8210   -1.9540   -3.5530 h1        1 MOL      0.068172
    148 N13        -5.3730   -4.0760    0.1570 n         1 MOL     -0.134543
    149 C50        -4.6730   -4.9480    1.0600 c3        1 MOL     -0.069973
    150 C51        -4.8980   -4.6850    2.5350 c         1 MOL      0.471104
    151 O21        -5.2580   -5.6240    3.2440 o         1 MOL     -0.542162
    152 C52        -3.1950   -5.0470    0.7750 c3        1 MOL      0.245933
    153 C53        -2.8760   -5.3070   -0.6820 c3        1 MOL     -0.338461
    154 C54        -1.4240   -5.6380   -0.8330 c         1 MOL      0.809951
    155 O22        -0.5990   -4.7900   -1.2990 o         1 MOL     -0.753205
    156 O23        -1.1130   -6.7750   -0.4710 o         1 MOL     -0.753205
    157 H67        -4.8220   -3.3410   -0.2480 hn        1 MOL     -0.042631
    158 H68        -4.9420   -5.9880    0.8710 h1        1 MOL      0.071569
    159 H69        -2.7700   -5.7830    1.4480 hc        1 MOL     -0.055037
    160 H70        -2.8160   -4.0540    1.0320 hc        1 MOL     -0.055037
    161 H71        -3.1750   -4.5330   -1.3820 hc        1 MOL      0.074981
    162 H72        -3.2910   -6.2730   -0.9620 hc        1 MOL      0.074981
    163 N14        -4.5570   -3.4440    2.9420 n         1 MOL     -0.193838
    164 C55        -4.6090   -3.0020    4.3830 c3        1 MOL     -0.244057
    165 H73        -5.3040   -2.1670    4.4810 h1        1 MOL      0.103702
    166 H74        -4.9470   -3.8300    5.0060 h1        1 MOL      0.103702
    167 H75        -3.6160   -2.6870    4.7030 h1        1 MOL      0.103702
    168 H76        -4.1970   -2.7880    2.2630 hn        1 MOL      0.120592
    169 Ca1         2.0100   -4.3580   -0.4990 Ca        1 MOL      1.811172
    170 O24         3.1970   -2.0030    0.2690 oh        1 MOL     -0.879575
    171 H77         2.7270   -1.5490    0.9740 ho        1 MOL      0.415099
    172 H78         4.0170   -1.5090    0.1820 ho        1 MOL      0.415099
    173 O25         3.3780   -4.7940    1.7730 oh        1 MOL     -0.879575
    174 H79         2.8650   -5.3340    2.3660 ho        1 MOL      0.415099
    175 H80         4.2960   -4.9830    1.9930 ho        1 MOL      0.415099
    176 O26         1.3350   -6.8880    0.7050 oh        1 MOL     -0.879575
    177 H81         0.4770   -7.0980    0.3410 ho        1 MOL      0.415099
    178 H82         1.2970   -7.1940    1.6150 ho        1 MOL      0.415099
    179 O27         4.5770   -4.9230   -0.9530 oh        1 MOL     -0.879575
    180 H83         5.1120   -4.3680   -0.3770 ho        1 MOL      0.415099
    181 H84         5.2150   -5.4900   -1.3900 ho        1 MOL      0.415099
    182 O28         2.1310   -6.3660   -2.4200 oh        1 MOL     -0.879575
    183 H85         1.2800   -6.7650   -2.5900 ho        1 MOL      0.415099
    184 H86         2.7610   -7.0750   -2.5560 ho        1 MOL      0.415099
@<TRIPOS>BOND
     1    1    2 1   
     2    1    4 1   
     3    1    5 1   
     4    1    6 1   
     5    2    3 2   
     6    2    7 1   
     7    7    8 1   
     8    7   15 1   
     9    8    9 1   
    10    8   11 1   
    11    8   16 1   
    12    9   10 2   
    13    9   19 1   
    14   11   12 1   
    15   11   17 1   
    16   11   18 1   
    17   12   13 1   
    18   12   14 1   
    19   19   20 1   
    20   19   24 1   
    21   20   21 1   
    22   20   23 1   
    23   20   25 1   
    24   21   22 2   
    25   21   29 1   
    26   23   26 1   
    27   23   27 1   
    28   23   28 1   
    29   29   30 1   
    30   29   37 1   
    31   30   31 1   
    32   30   33 1   
    33   30   38 1   
    34   31   32 2   
    35   31   41 1   
    36   33   34 1   
    37   33   39 1   
    38   33   40 1   
    39   34   35 1   
    40   34   36 1   
    41   41   42 1   
    42   41   45 1   
    43   42   43 1   
    44   42   46 1   
    45   42   47 1   
    46   43   44 2   
    47   43   48 1   
    48   48   49 1   
    49   48   56 1   
    50   49   50 1   
    51   49   52 1   
    52   49   57 1   
    53   50   51 2   
    54   50   62 1   
    55   52   53 1   
    56   52   58 1   
    57   52   59 1   
    58   53   54 1   
    59   53   55 2   
    60   54   60 1   
    61   54   61 1   
    62   62   63 1   
    63   62   66 1   
    64   63   64 1   
    65   63   67 1   
    66   63   68 1   
    67   64   65 2   
    68   64   69 1   
    69   69   70 1   
    70   69   76 1   
    71   70   71 1   
    72   70   73 1   
    73   70   77 1   
    74   71   72 2   
    75   71   83 1   
    76   73   74 1   
    77   73   75 1   
    78   73   78 1   
    79   74   80 1   
    80   74   81 1   
    81   74   82 1   
    82   75   79 1   
    83   83   84 1   
    84   83   91 1   
    85   84   85 1   
    86   84   87 1   
    87   84   92 1   
    88   85   86 2   
    89   85  102 1   
    90   87   88 1   
    91   87   89 1   
    92   87   93 1   
    93   88   90 1   
    94   88   94 1   
    95   88   95 1   
    96   89   96 1   
    97   89   97 1   
    98   89   98 1   
    99   90   99 1   
   100   90  100 1   
   101   90  101 1   
   102  102  103 1   
   103  102  110 1   
   104  103  104 1   
   105  103  106 1   
   106  103  111 1   
   107  104  105 2   
   108  104  114 1   
   109  106  107 1   
   110  106  112 1   
   111  106  113 1   
   112  107  108 1   
   113  107  109 1   
   114  114  115 1   
   115  114  125 1   
   116  115  116 1   
   117  115  118 1   
   118  115  126 1   
   119  116  117 2   
   120  116  134 1   
   121  118  119 1   
   122  118  127 1   
   123  118  128 1   
   124  119  120 ar  
   125  119  121 ar  
   126  120  122 ar  
   127  120  129 1   
   128  121  123 ar  
   129  121  130 1   
   130  122  124 ar  
   131  122  131 1   
   132  123  124 ar  
   133  123  132 1   
   134  124  133 1   
   135  134  135 1   
   136  134  140 1   
   137  135  136 1   
   138  135  138 1   
   139  135  141 1   
   140  136  137 2   
   141  136  148 1   
   142  138  139 1   
   143  138  142 1   
   144  138  143 1   
   145  139  140 1   
   146  139  144 1   
   147  139  145 1   
   148  140  146 1   
   149  140  147 1   
   150  148  149 1   
   151  148  157 1   
   152  149  150 1   
   153  149  152 1   
   154  149  158 1   
   155  150  151 2   
   156  150  163 1   
   157  152  153 1   
   158  152  159 1   
   159  152  160 1   
   160  153  154 1   
   161  153  161 1   
   162  153  162 1   
   163  154  155 1   
   164  154  156 1   
   165  163  164 1   
   166  163  168 1   
   167  164  165 1   
   168  164  166 1   
   169  164  167 1   
   170  170  171 1   
   171  170  172 1   
   172  173  174 1   
   173  173  175 1   
   174  176  177 1   
   175  176  178 1   
   176  179  180 1   
   177  179  181 1   
   178  182  183 1   
   179  182  184 1   
@<TRIPOS>SUBSTRUCTURE
     1 MOL         1 TEMP              0 ****  ****    0 ROOT
