@<TRIPOS>MOLECULE
MOL
  181   177     1     0     0
SMALL
resp


@<TRIPOS>ATOM
      1 C1          8.5030   -6.1690    4.1220 c3        1 MOL     -0.222597
      2 C2          7.4350   -5.7230    3.0940 c         1 MOL      0.591554
      3 O1          6.2440   -5.9450    3.2680 o         1 MOL     -0.570229
      4 H1          9.4870   -5.8350    3.7910 hc        1 MOL      0.044373
      5 H2          8.2790   -5.7280    5.0930 hc        1 MOL      0.044373
      6 H3          8.4970   -7.2560    4.2050 hc        1 MOL      0.044373
      7 N1          7.8720   -5.0540    2.0500 n         1 MOL     -0.349244
      8 C3          9.2090   -4.8240    1.5740 c3        1 MOL      0.073453
      9 C4          9.1370   -5.0710    0.0590 c         1 MOL      0.435791
     10 O2          8.2150   -5.6420   -0.4720 o         1 MOL     -0.450366
     11 C5          9.8390   -3.4830    2.1370 c3        1 MOL     -0.052148
     12 C6          9.1910   -2.2580    1.6340 c         1 MOL      0.541924
     13 O3          9.4080   -1.8800    0.4390 o         1 MOL     -0.624694
     14 O4          8.5210   -1.5070    2.3930 o         1 MOL     -0.624694
     15 H4          7.1090   -4.7600    1.4480 hn        1 MOL      0.324168
     16 H5          9.9470   -5.5410    1.9160 h1        1 MOL      0.052193
     17 H6         10.9090   -3.4050    1.9110 hc        1 MOL      0.008107
     18 H7          9.7840   -3.5140    3.2240 hc        1 MOL      0.008107
     19 N2         10.2710   -4.7630   -0.6470 n         1 MOL     -0.510508
     20 C7         10.4340   -4.6260   -2.0870 c3        1 MOL      0.407698
     21 C8          9.2370   -3.7800   -2.7510 c         1 MOL      0.143187
     22 O5          9.0460   -3.8660   -3.9850 o         1 MOL     -0.538480
     23 C9         10.4780   -5.9820   -2.6930 c3        1 MOL     -0.413848
     24 H8         11.0320   -4.3840   -0.1040 hn        1 MOL      0.278859
     25 H9         11.3580   -4.0770   -2.2550 h1        1 MOL      0.000962
     26 H10         9.5090   -6.4700   -2.7260 hc        1 MOL      0.108995
     27 H11        10.7180   -5.9510   -3.7520 hc        1 MOL      0.108995
     28 H12        11.2620   -6.5440   -2.1830 hc        1 MOL      0.108995
     29 N3          8.4620   -2.9920   -2.0000 n         1 MOL      0.638450
     30 C10         7.3480   -2.0840   -2.4670 c3        1 MOL     -0.439310
     31 C11         7.7820   -0.6350   -2.4830 c         1 MOL      0.472242
     32 O6          8.7540   -0.1720   -1.8080 o         1 MOL     -0.548205
     33 C12         6.0570   -2.2240   -1.6290 c3        1 MOL      0.126423
     34 C13         6.1820   -2.0340   -0.1290 c         1 MOL      0.633189
     35 O7          6.4020   -0.8810    0.3310 o         1 MOL     -0.644291
     36 O8          6.1240   -3.1060    0.5490 o         1 MOL     -0.644291
     37 H13         8.6260   -3.0370   -0.9980 hn        1 MOL     -0.487005
     38 H14         6.9840   -2.4440   -3.4330 h1        1 MOL      0.126406
     39 H15         5.6490   -3.2340   -1.7400 hc        1 MOL      0.000594
     40 H16         5.2130   -1.6380   -1.9970 hc        1 MOL      0.000594
     41 N4          7.0990    0.1710   -3.2530 n         1 MOL     -0.243671
     42 C14         7.3650    1.5740   -3.3580 c3        1 MOL     -0.449096
     43 C15         6.8560    2.3590   -2.0700 c         1 MOL      0.842443
     44 O9          7.0560    1.8710   -0.9800 o         1 MOL     -0.696605
     45 H17         6.2080   -0.1760   -3.5930 hn        1 MOL      0.297177
     46 H18         6.7970    1.9080   -4.2190 h1        1 MOL      0.176488
     47 H19         8.4260    1.7010   -3.5910 h1        1 MOL      0.176488
     48 N5          6.3200    3.5510   -2.3020 n         1 MOL     -0.767452
     49 C16         5.8230    4.3740   -1.1210 c3        1 MOL      0.538633
     50 C17         4.3050    4.2050   -0.9320 c         1 MOL      0.514368
     51 O10         3.6190    3.4970   -1.6780 o         1 MOL     -0.467095
     52 C18         6.1810    5.8420   -1.3630 c3        1 MOL     -0.311901
     53 C19         7.6120    6.2500   -1.6800 c         1 MOL      0.665317
     54 N6          8.1070    6.0700   -2.8920 n         1 MOL     -0.798267
     55 O11         8.3920    6.4610   -0.7260 o         1 MOL     -0.577650
     56 H20         6.3780    3.9670   -3.2220 hn        1 MOL      0.344574
     57 H21         6.3340    4.0760   -0.2070 h1        1 MOL     -0.081058
     58 H22         5.9140    6.3860   -0.4630 hc        1 MOL      0.064576
     59 H23         5.4410    6.2270   -2.0640 hc        1 MOL      0.064576
     60 H24         7.5370    5.9570   -3.7170 hn        1 MOL      0.367557
     61 H25         9.0100    6.5240   -3.0240 hn        1 MOL      0.367557
     62 N7          3.7430    4.8310    0.1380 n         1 MOL     -0.685501
     63 C20         2.3340    4.5410    0.4990 c3        1 MOL      0.093872
     64 C21         1.3300    5.4640   -0.1430 c         1 MOL      0.635077
     65 O12         1.6300    6.2370   -1.0590 o         1 MOL     -0.564008
     66 H26         4.2780    5.4960    0.6830 hn        1 MOL      0.358073
     67 H27         2.2260    4.7270    1.5700 h1        1 MOL      0.061126
     68 H28         2.0930    3.4960    0.2800 h1        1 MOL      0.061126
     69 N8          0.0560    5.3210    0.2430 n         1 MOL     -0.507469
     70 C22        -0.5330    4.5500    1.3540 c3        1 MOL     -0.036150
     71 C23        -1.7930    3.8080    0.8330 c         1 MOL      0.554531
     72 O13        -2.5110    4.2790   -0.0630 o         1 MOL     -0.531535
     73 C24        -0.9640    5.4170    2.6010 c3        1 MOL      0.364497
     74 C25         0.2420    5.9660    3.3370 c3        1 MOL     -0.305938
     75 O14        -1.7150    6.5140    2.1770 oh        1 MOL     -0.598646
     76 H29        -0.6300    5.8900   -0.2130 hn        1 MOL      0.303941
     77 H30         0.2300    3.8680    1.7240 h1        1 MOL      0.022352
     78 H31        -1.5170    4.8740    3.3790 h1        1 MOL      0.020460
     79 H32        -2.5880    6.2530    1.8680 ho        1 MOL      0.405295
     80 H33         0.7940    6.4790    2.5550 hc        1 MOL      0.074284
     81 H34        -0.1380    6.7350    4.0030 hc        1 MOL      0.074284
     82 H35         0.9510    5.3000    3.8480 hc        1 MOL      0.074284
     83 N9         -2.0930    2.6840    1.4460 n         1 MOL     -0.427257
     84 C26        -3.1960    1.8560    1.0860 c3        1 MOL     -0.033163
     85 C27        -4.2290    1.7310    2.2150 c         1 MOL      0.525821
     86 O15        -3.8650    1.7720    3.3620 o         1 MOL     -0.572251
     87 C28        -2.7410    0.4410    0.6420 c3        1 MOL      0.155277
     88 C29        -2.0340   -0.3560    1.8080 c3        1 MOL      0.257759
     89 C30        -1.7920    0.6440   -0.6680 c3        1 MOL     -0.226387
     90 C31        -1.0560   -1.5120    1.4720 c3        1 MOL     -0.237925
     91 H36        -1.5130    2.4830    2.2450 hn        1 MOL      0.248823
     92 H37        -3.6540    2.3300    0.2160 h1        1 MOL      0.145576
     93 H38        -3.6030   -0.1650    0.3340 hc        1 MOL     -0.034106
     94 H39        -2.7880   -0.7210    2.5050 hc        1 MOL     -0.069665
     95 H40        -1.4420    0.3810    2.3430 hc        1 MOL     -0.069665
     96 H41        -2.3240    0.9050   -1.5790 hc        1 MOL      0.050577
     97 H42        -1.0790    1.4390   -0.4690 hc        1 MOL      0.050577
     98 H43        -1.2280   -0.2590   -0.8960 hc        1 MOL      0.050577
     99 H44        -0.8020   -2.0670    2.3780 hc        1 MOL      0.046044
    100 H45        -1.5620   -2.2040    0.8060 hc        1 MOL      0.046044
    101 H46        -0.1310   -1.1580    1.0230 hc        1 MOL      0.046044
    102 N10        -5.5050    1.4470    1.9170 n         1 MOL     -0.440090
    103 C32        -6.1930    1.5620    0.6460 c3        1 MOL      0.127635
    104 C33        -7.5580    0.8270    0.6560 c         1 MOL      0.453185
    105 O16        -8.0400    0.2740    1.6700 o         1 MOL     -0.525687
    106 C34        -6.5110    3.0670    0.4870 c3        1 MOL     -0.041049
    107 C35        -7.2770    3.6440    1.6920 c         1 MOL      0.693995
    108 O17        -8.5280    3.7060    1.5840 o         1 MOL     -0.685229
    109 O18        -6.6480    4.1130    2.6740 o         1 MOL     -0.685229
    110 H47        -6.2080    1.2590    2.6270 hn        1 MOL      0.304802
    111 H48        -5.4940    1.3150   -0.1580 h1        1 MOL      0.028518
    112 H49        -7.1950    3.2800   -0.3360 hc        1 MOL     -0.031343
    113 H50        -5.6430    3.6580    0.2100 hc        1 MOL     -0.031343
    114 N11        -8.2220    0.7440   -0.5290 n         1 MOL     -0.578691
    115 C36        -9.5770    0.1740   -0.7570 c3        1 MOL      0.619615
    116 C37        -9.6330   -0.5230   -2.0600 c         1 MOL     -0.041784
    117 O19        -9.2090    0.1320   -3.0970 o         1 MOL     -0.478487
    118 C38       -10.5310    1.4280   -0.8310 c3        1 MOL     -0.344432
    119 C39       -11.9610    1.0240   -0.8030 ca        1 MOL      0.184151
    120 C40       -12.7330    1.0310   -1.9840 ca        1 MOL     -0.199218
    121 C41       -12.5390    0.6210    0.4230 ca        1 MOL     -0.199218
    122 C42       -14.1510    0.7320   -1.8950 ca        1 MOL     -0.116903
    123 C43       -13.8920    0.2650    0.4600 ca        1 MOL     -0.116903
    124 C44       -14.7160    0.3970   -0.6540 ca        1 MOL     -0.141731
    125 H51        -7.7390    1.1200   -1.3370 hn        1 MOL      0.347614
    126 H52        -9.9290   -0.4290    0.0770 h1        1 MOL     -0.048191
    127 H53       -10.2640    1.9530   -1.7520 hc        1 MOL      0.103838
    128 H54       -10.3760    2.0430    0.0430 hc        1 MOL      0.103838
    129 H55       -12.3060    1.2530   -2.9460 ha        1 MOL      0.148200
    130 H56       -11.9300    0.5810    1.3090 ha        1 MOL      0.148200
    131 H57       -14.7250    0.8390   -2.8150 ha        1 MOL      0.091638
    132 H58       -14.3670    0.0240    1.4100 ha        1 MOL      0.091638
    133 H59       -15.7570    0.1310   -0.5170 ha        1 MOL      0.093467
    134 N12       -10.1510   -1.7210   -2.1100 n         1 MOL      0.345500
    135 C45       -10.8390   -2.5290   -1.0580 c3        1 MOL      0.042263
    136 C46        -9.9390   -3.1260    0.0520 c         1 MOL      0.422848
    137 O20       -10.3560   -3.2430    1.1920 o         1 MOL     -0.561031
    138 C47       -11.5510   -3.5800   -1.7810 c3        1 MOL     -0.150510
    139 C48       -11.6910   -3.0630   -3.2350 c3        1 MOL      0.286147
    140 C49       -10.3990   -2.3740   -3.3630 c3        1 MOL     -0.395661
    141 H60       -11.6010   -1.8610   -0.6490 h1        1 MOL      0.057751
    142 H61       -10.9730   -4.5080   -1.7630 hc        1 MOL      0.037846
    143 H62       -12.5540   -3.7770   -1.4030 hc        1 MOL      0.037846
    144 H63       -11.9300   -3.7870   -4.0190 hc        1 MOL     -0.078954
    145 H64       -12.4880   -2.3250   -3.1380 hc        1 MOL     -0.078954
    146 H65        -9.6720   -3.1580   -3.5680 h1        1 MOL      0.127505
    147 H66       -10.5970   -1.5970   -4.0950 h1        1 MOL      0.127505
    148 N13        -8.6230   -3.2900   -0.2550 n         1 MOL     -0.249856
    149 C50        -7.6800   -3.9010    0.6100 c3        1 MOL      0.221910
    150 C51        -8.1020   -5.3510    1.0060 c         1 MOL      0.353179
    151 O21        -8.0550   -6.2490    0.1480 o         1 MOL     -0.556449
    152 C52        -6.3050   -3.9140   -0.0210 c3        1 MOL     -0.111644
    153 C53        -5.8080   -2.4760   -0.2670 c3        1 MOL      0.023264
    154 C54        -6.1860   -1.8990   -1.6070 c         1 MOL      0.647028
    155 O22        -7.0100   -2.4750   -2.3480 o         1 MOL     -0.672360
    156 O23        -5.7580   -0.7410   -1.8720 o         1 MOL     -0.672360
    157 H67        -8.3280   -3.1590   -1.2120 hn        1 MOL      0.153998
    158 H68        -7.5380   -3.3310    1.5180 h1        1 MOL      0.049067
    159 H69        -6.2730   -4.4920   -0.9380 hc        1 MOL      0.023169
    160 H70        -5.6320   -4.4090    0.6810 hc        1 MOL      0.023169
    161 H71        -4.7330   -2.3590   -0.1620 hc        1 MOL     -0.035285
    162 H72        -6.2880   -1.8460    0.4900 hc        1 MOL     -0.035285
    163 N14        -8.5220   -5.7270    2.2640 n         1 MOL     -0.281452
    164 C55        -8.7480   -4.8880    3.4330 c3        1 MOL     -0.175325
    165 H73        -9.3740   -4.0390    3.1540 h1        1 MOL      0.079149
    166 H74        -9.2500   -5.4680    4.2070 h1        1 MOL      0.079149
    167 H75        -7.7920   -4.5250    3.8110 h1        1 MOL      0.079149
    168 H76        -8.5820   -6.7180    2.4470 hn        1 MOL      0.245877
    169 Ca1         8.4560    0.5080    0.8100 Ca        1 MOL      1.778959
    170 O24        10.6670    1.4770   -0.4530 oh        1 MOL     -0.826120
    171 H77        10.7870    1.8230   -1.3360 ho        1 MOL      0.403101
    172 H78        11.4300    1.7800    0.0300 ho        1 MOL      0.403101
    173 O25         8.6120    3.2360    0.9870 oh        1 MOL     -0.826120
    174 H79         7.9870    3.8950    1.3130 ho        1 MOL      0.403101
    175 H80         9.0840    3.6880    0.2840 ho        1 MOL      0.403101
    176 O26         7.0600    1.0320    3.0810 oh        1 MOL     -0.826120
    177 H81         7.3400    1.2870    3.9670 ho        1 MOL      0.403101
    178 H82         6.4500    1.7270    2.8210 ho        1 MOL      0.403101
    179 O27        10.4210    1.0380    2.4660 oh        1 MOL     -0.826120
    180 H83        11.0260    0.4330    2.9010 ho        1 MOL      0.403101
    181 H84        10.6860    1.8970    2.7680 ho        1 MOL      0.403101
@<TRIPOS>BOND
     1    1    2 1   
     2    1    4 1   
     3    1    5 1   
     4    1    6 1   
     5    2    3 2   
     6    2    7 1   
     7    7    8 1   
     8    7   15 1   
     9    8    9 1   
    10    8   11 1   
    11    8   16 1   
    12    9   10 2   
    13    9   19 1   
    14   11   12 1   
    15   11   17 1   
    16   11   18 1   
    17   12   13 1   
    18   12   14 1   
    19   19   20 1   
    20   19   24 1   
    21   20   21 1   
    22   20   23 1   
    23   20   25 1   
    24   21   22 2   
    25   21   29 1   
    26   23   26 1   
    27   23   27 1   
    28   23   28 1   
    29   29   30 1   
    30   29   37 1   
    31   30   31 1   
    32   30   33 1   
    33   30   38 1   
    34   31   32 2   
    35   31   41 1   
    36   33   34 1   
    37   33   39 1   
    38   33   40 1   
    39   34   35 1   
    40   34   36 1   
    41   41   42 1   
    42   41   45 1   
    43   42   43 1   
    44   42   46 1   
    45   42   47 1   
    46   43   44 2   
    47   43   48 1   
    48   48   49 1   
    49   48   56 1   
    50   49   50 1   
    51   49   52 1   
    52   49   57 1   
    53   50   51 2   
    54   50   62 1   
    55   52   53 1   
    56   52   58 1   
    57   52   59 1   
    58   53   54 1   
    59   53   55 2   
    60   54   60 1   
    61   54   61 1   
    62   62   63 1   
    63   62   66 1   
    64   63   64 1   
    65   63   67 1   
    66   63   68 1   
    67   64   65 2   
    68   64   69 1   
    69   69   70 1   
    70   69   76 1   
    71   70   71 1   
    72   70   73 1   
    73   70   77 1   
    74   71   72 2   
    75   71   83 1   
    76   73   74 1   
    77   73   75 1   
    78   73   78 1   
    79   74   80 1   
    80   74   81 1   
    81   74   82 1   
    82   75   79 1   
    83   83   84 1   
    84   83   91 1   
    85   84   85 1   
    86   84   87 1   
    87   84   92 1   
    88   85   86 2   
    89   85  102 1   
    90   87   88 1   
    91   87   89 1   
    92   87   93 1   
    93   88   90 1   
    94   88   94 1   
    95   88   95 1   
    96   89   96 1   
    97   89   97 1   
    98   89   98 1   
    99   90   99 1   
   100   90  100 1   
   101   90  101 1   
   102  102  103 1   
   103  102  110 1   
   104  103  104 1   
   105  103  106 1   
   106  103  111 1   
   107  104  105 2   
   108  104  114 1   
   109  106  107 1   
   110  106  112 1   
   111  106  113 1   
   112  107  108 1   
   113  107  109 1   
   114  114  115 1   
   115  114  125 1   
   116  115  116 1   
   117  115  118 1   
   118  115  126 1   
   119  116  117 2   
   120  116  134 1   
   121  118  119 1   
   122  118  127 1   
   123  118  128 1   
   124  119  120 ar  
   125  119  121 ar  
   126  120  122 ar  
   127  120  129 1   
   128  121  123 ar  
   129  121  130 1   
   130  122  124 ar  
   131  122  131 1   
   132  123  124 ar  
   133  123  132 1   
   134  124  133 1   
   135  134  135 1   
   136  134  140 1   
   137  135  136 1   
   138  135  138 1   
   139  135  141 1   
   140  136  137 2   
   141  136  148 1   
   142  138  139 1   
   143  138  142 1   
   144  138  143 1   
   145  139  140 1   
   146  139  144 1   
   147  139  145 1   
   148  140  146 1   
   149  140  147 1   
   150  148  149 1   
   151  148  157 1   
   152  149  150 1   
   153  149  152 1   
   154  149  158 1   
   155  150  151 2   
   156  150  163 1   
   157  152  153 1   
   158  152  159 1   
   159  152  160 1   
   160  153  154 1   
   161  153  161 1   
   162  153  162 1   
   163  154  155 1   
   164  154  156 1   
   165  163  164 1   
   166  163  168 1   
   167  164  165 1   
   168  164  166 1   
   169  164  167 1   
   170  170  171 1   
   171  170  172 1   
   172  173  174 1   
   173  173  175 1   
   174  176  177 1   
   175  176  178 1   
   176  179  180 1   
   177  179  181 1   
@<TRIPOS>SUBSTRUCTURE
     1 MOL         1 TEMP              0 ****  ****    0 ROOT
