@<TRIPOS>MOLECULE
MOL
  178   175     1     0     0
SMALL
resp


@<TRIPOS>ATOM
      1 C1          2.0660   -0.3460    5.3190 c3        1 MOL     -0.406658
      2 C2          3.1300    0.1480    4.2890 c         1 MOL      0.682794
      3 O1          3.0340    1.0050    3.4160 o         1 MOL     -0.555737
      4 H1          2.2400   -1.3990    5.5440 hc        1 MOL      0.099472
      5 H2          2.1480    0.2390    6.2350 hc        1 MOL      0.099472
      6 H3          1.0690   -0.2260    4.8990 hc        1 MOL      0.099472
      7 N1          4.2940   -0.4490    4.5080 n         1 MOL     -0.586449
      8 C3          5.5310   -0.3030    3.7060 c3        1 MOL      0.348541
      9 C4          5.6420   -1.3350    2.5660 c         1 MOL      0.452332
     10 O2          6.3800   -1.0120    1.6620 o         1 MOL     -0.427309
     11 C5          6.7340   -0.4630    4.6220 c3        1 MOL     -0.144786
     12 C6          8.0540   -0.0230    3.9270 c         1 MOL      0.627875
     13 O3          8.9840   -0.8260    3.6920 o         1 MOL     -0.693976
     14 O4          8.0540    1.1660    3.4710 o         1 MOL     -0.693976
     15 H4          4.3140   -1.1900    5.1920 hn        1 MOL      0.267890
     16 H5          5.6450    0.6830    3.2580 h1        1 MOL      0.021383
     17 H6          6.6890   -1.4950    4.9660 hc        1 MOL     -0.029351
     18 H7          6.5510    0.2300    5.4440 hc        1 MOL     -0.029351
     19 N2          4.9710   -2.5080    2.5760 n         1 MOL     -0.522498
     20 C7          4.8900   -3.4750    1.4920 c3        1 MOL      0.341861
     21 C8          4.7410   -2.9130    0.0940 c         1 MOL      0.358700
     22 O5          3.6170   -2.8060   -0.4990 o         1 MOL     -0.553847
     23 C9          6.1170   -4.3990    1.6440 c3        1 MOL     -0.360867
     24 H8          4.3990   -2.7040    3.3840 hn        1 MOL      0.277251
     25 H9          3.9960   -4.0580    1.7140 h1        1 MOL      0.036860
     26 H10         6.1900   -4.8270    2.6420 hc        1 MOL      0.092991
     27 H11         5.9030   -5.1850    0.9160 hc        1 MOL      0.092991
     28 H12         7.0780   -3.9380    1.4170 hc        1 MOL      0.092991
     29 N3          5.8240   -2.5340   -0.6530 n         1 MOL     -0.102228
     30 C10         5.8290   -1.9410   -1.9820 c3        1 MOL     -0.012664
     31 C11         6.0440   -0.4350   -2.0860 c         1 MOL      0.508730
     32 O6          6.0950    0.0870   -3.2510 o         1 MOL     -0.549981
     33 C12         6.7810   -2.6870   -2.9330 c3        1 MOL     -0.326205
     34 C13         6.5450   -4.1970   -2.9180 c         1 MOL      0.812616
     35 O7          5.6700   -4.5420   -3.7610 o         1 MOL     -0.751395
     36 O8          7.1100   -4.9710   -2.0800 o         1 MOL     -0.751395
     37 H13         6.7510   -2.6680   -0.2810 hn        1 MOL      0.192053
     38 H14         4.8280   -2.1260   -2.3710 h1        1 MOL      0.077442
     39 H15         7.7850   -2.5770   -2.5140 hc        1 MOL      0.051593
     40 H16         6.6280   -2.2070   -3.9060 hc        1 MOL      0.051593
     41 N4          6.0740    0.3150   -0.9930 n         1 MOL     -0.210366
     42 C14         6.4710    1.7420   -1.1030 c3        1 MOL     -0.069638
     43 C15         5.3770    2.6060   -1.7580 c         1 MOL      0.563352
     44 O9          5.5100    3.7270   -2.2330 o         1 MOL     -0.560325
     45 H17         5.9810   -0.0110   -0.0440 hn        1 MOL      0.156283
     46 H18         7.3520    1.9450   -1.7060 h1        1 MOL      0.073125
     47 H19         6.7230    2.0490   -0.0840 h1        1 MOL      0.073125
     48 N5          4.0890    2.1260   -1.6520 n         1 MOL     -0.280660
     49 C16         2.8780    2.6920   -2.1380 c3        1 MOL     -0.232950
     50 C17         2.5620    4.0440   -1.4160 c         1 MOL      0.650949
     51 O10         2.7150    4.2190   -0.2350 o         1 MOL     -0.506356
     52 C18         1.6330    1.7210   -2.0450 c3        1 MOL     -0.574128
     53 C19         1.9800    0.5660   -3.0010 c         1 MOL      0.826575
     54 N6          1.8350    0.7640   -4.2670 n         1 MOL     -0.745178
     55 O11         2.3860   -0.5470   -2.6010 o         1 MOL     -0.652514
     56 H20         3.9290    1.2270   -1.1970 hn        1 MOL      0.249040
     57 H21         3.1240    2.9810   -3.1620 h1        1 MOL      0.123687
     58 H22         0.7680    2.2610   -2.4490 hc        1 MOL      0.219967
     59 H23         1.4010    1.3710   -1.0430 hc        1 MOL      0.219967
     60 H24         1.5540    1.6980   -4.5590 hn        1 MOL      0.351891
     61 H25         1.9880    0.0180   -4.9290 hn        1 MOL      0.351891
     62 N7          2.2410    5.1320   -2.1770 n         1 MOL     -0.379554
     63 C20         1.7920    6.4700   -1.6700 c3        1 MOL     -0.098187
     64 C21         0.3130    6.7950   -1.8000 c         1 MOL      0.596136
     65 O12        -0.3100    6.3820   -2.7580 o         1 MOL     -0.542187
     66 H26         2.3050    4.9510   -3.1710 hn        1 MOL      0.234996
     67 H27         2.3380    7.2670   -2.1800 h1        1 MOL      0.082413
     68 H28         2.0750    6.4630   -0.6160 h1        1 MOL      0.082413
     69 N8         -0.2490    7.4940   -0.8350 n         1 MOL     -0.468095
     70 C22        -1.7070    7.7950   -0.7290 c3        1 MOL     -0.324439
     71 C23        -2.4660    6.6340   -0.0530 c         1 MOL      0.553113
     72 O13        -3.6770    6.7680    0.2290 o         1 MOL     -0.577477
     73 C24        -1.9230    9.1300    0.0420 c3        1 MOL      0.518400
     74 C25        -1.8510    9.0430    1.5800 c3        1 MOL     -0.369614
     75 O14        -1.1320   10.2020   -0.4780 oh        1 MOL     -0.610797
     76 H29         0.3620    7.8330   -0.1070 hn        1 MOL      0.270088
     77 H30        -2.0720    7.9800   -1.7400 h1        1 MOL      0.193513
     78 H31        -2.9430    9.4560   -0.1800 h1        1 MOL      0.014668
     79 H32        -0.2280    9.9070   -0.3310 ho        1 MOL      0.355255
     80 H33        -1.9100   10.0010    2.0960 hc        1 MOL      0.092618
     81 H34        -2.6780    8.4350    1.9620 hc        1 MOL      0.092618
     82 H35        -0.9570    8.4570    1.8040 hc        1 MOL      0.092618
     83 N9         -1.8530    5.4570    0.1650 n         1 MOL     -0.257315
     84 C26        -2.4900    4.2480    0.7110 c3        1 MOL      0.011162
     85 C27        -2.1290    2.9820   -0.0730 c         1 MOL      0.440841
     86 O15        -1.2880    3.0080   -0.9470 o         1 MOL     -0.459625
     87 C28        -2.0810    4.1160    2.2520 c3        1 MOL      0.142761
     88 C29        -0.5680    4.2650    2.6040 c3        1 MOL     -0.512536
     89 C30        -2.7870    5.1540    3.0180 c3        1 MOL     -0.187196
     90 C31         0.5430    3.2550    2.0590 c3        1 MOL      0.016688
     91 H36        -0.9060    5.3270   -0.1650 hn        1 MOL      0.231243
     92 H37        -3.5710    4.3570    0.6390 h1        1 MOL      0.073732
     93 H38        -2.3990    3.1200    2.5640 hc        1 MOL      0.027543
     94 H39        -0.5520    4.1410    3.6820 hc        1 MOL      0.128991
     95 H40        -0.1920    5.2900    2.5400 hc        1 MOL      0.128991
     96 H41        -2.5370    6.1650    2.7070 hc        1 MOL      0.044157
     97 H42        -3.8180    4.8710    2.8000 hc        1 MOL      0.044157
     98 H43        -2.7770    4.8730    4.0690 hc        1 MOL      0.044157
     99 H44         0.7100    3.4490    1.0050 hc        1 MOL      0.064416
    100 H45         1.4380    3.3320    2.6790 hc        1 MOL      0.064416
    101 H46         0.1940    2.2310    2.1800 hc        1 MOL      0.064416
    102 N10        -2.7580    1.8460    0.2580 n         1 MOL     -0.448629
    103 C32        -2.4690    0.4810   -0.2030 c3        1 MOL     -0.133510
    104 C33        -3.6760   -0.4620   -0.4220 c         1 MOL      0.590972
    105 O16        -3.4930   -1.6880   -0.4960 o         1 MOL     -0.518518
    106 C34        -1.2710   -0.1520    0.5880 c3        1 MOL      0.103960
    107 C35        -0.3420   -0.9770   -0.2720 c         1 MOL      0.569503
    108 O17         0.7470   -1.3370    0.2000 o         1 MOL     -0.747667
    109 O18        -0.6120   -1.1980   -1.5120 o         1 MOL     -0.747667
    110 H47        -3.5480    1.9770    0.8790 hn        1 MOL      0.248759
    111 H48        -2.0940    0.7290   -1.2020 h1        1 MOL      0.132155
    112 H49        -1.7000   -0.7040    1.4240 hc        1 MOL      0.017027
    113 H50        -0.6550    0.6680    0.9560 hc        1 MOL      0.017027
    114 N11        -4.8520    0.1140   -0.6110 n         1 MOL     -0.462521
    115 C36        -6.1000   -0.6960   -0.8200 c3        1 MOL      0.244202
    116 C37        -6.3060   -1.7810    0.3510 c         1 MOL      0.155200
    117 O19        -6.2770   -1.3040    1.4790 o         1 MOL     -0.456728
    118 C38        -7.2830    0.3250   -0.8010 c3        1 MOL     -0.284804
    119 C39        -8.6660   -0.1860   -1.2090 ca        1 MOL      0.128368
    120 C40        -8.9650   -0.3290   -2.5980 ca        1 MOL     -0.179645
    121 C41        -9.5190   -0.6440   -0.2210 ca        1 MOL     -0.179645
    122 C42       -10.2950   -0.7740   -2.8880 ca        1 MOL     -0.090878
    123 C43       -10.7470   -1.1550   -0.5790 ca        1 MOL     -0.090878
    124 C44       -11.1830   -1.2100   -1.8890 ca        1 MOL     -0.123957
    125 H51        -4.9070    1.1260   -0.5770 hn        1 MOL      0.275531
    126 H52        -5.9200   -1.2200   -1.7550 h1        1 MOL      0.005762
    127 H53        -6.9550    1.1890   -1.3750 hc        1 MOL      0.103015
    128 H54        -7.3350    0.7300    0.2130 hc        1 MOL      0.103015
    129 H55        -8.2250    0.0020   -3.3130 ha        1 MOL      0.135605
    130 H56        -9.2420   -0.7230    0.8190 ha        1 MOL      0.135605
    131 H57       -10.5530   -0.9070   -3.9290 ha        1 MOL      0.096526
    132 H58       -11.4360   -1.2810    0.2410 ha        1 MOL      0.096526
    133 H59       -12.1440   -1.6320   -2.1260 ha        1 MOL      0.108164
    134 N12        -6.4670   -3.0640    0.0360 n         1 MOL      0.151908
    135 C45        -6.6950   -4.0280    1.1350 c3        1 MOL      0.117494
    136 C46        -5.4280   -4.1100    2.0360 c         1 MOL      0.372254
    137 O20        -5.6030   -4.4010    3.1850 o         1 MOL     -0.534323
    138 C47        -7.1190   -5.3210    0.4560 c3        1 MOL     -0.139108
    139 C48        -7.5140   -4.8430   -0.9730 c3        1 MOL     -0.015177
    140 C49        -6.6610   -3.6230   -1.3190 c3        1 MOL     -0.224426
    141 H60        -7.4590   -3.5400    1.7340 h1        1 MOL      0.034627
    142 H61        -6.2490   -5.9870    0.4480 hc        1 MOL      0.061991
    143 H62        -7.9860   -5.7390    0.9620 hc        1 MOL      0.061991
    144 H63        -7.3240   -5.6730   -1.6480 hc        1 MOL      0.023969
    145 H64        -8.5680   -4.5300   -1.0230 hc        1 MOL      0.023969
    146 H65        -5.7950   -4.0940   -1.7900 h1        1 MOL      0.113135
    147 H66        -7.2450   -2.9160   -1.9020 h1        1 MOL      0.113135
    148 N13        -4.2080   -3.8230    1.5130 n         1 MOL     -0.218451
    149 C50        -2.9680   -3.8130    2.3550 c3        1 MOL     -0.027403
    150 C51        -2.9090   -2.6580    3.3910 c         1 MOL      0.352835
    151 O21        -2.0410   -2.6520    4.2770 o         1 MOL     -0.538276
    152 C52        -1.7560   -3.7960    1.4310 c3        1 MOL      0.197722
    153 C53        -1.6320   -5.0230    0.4940 c3        1 MOL     -0.428015
    154 C54        -0.4980   -4.8510   -0.5300 c         1 MOL      0.870472
    155 O22         0.6860   -4.6960   -0.2190 o         1 MOL     -0.785575
    156 O23        -0.6740   -4.8240   -1.7910 o         1 MOL     -0.785575
    157 H67        -4.3070   -3.2290    0.7050 hn        1 MOL      0.127957
    158 H68        -2.9190   -4.7300    2.9400 h1        1 MOL      0.099952
    159 H69        -0.8980   -3.6870    2.0910 hc        1 MOL      0.023871
    160 H70        -1.8870   -2.9580    0.7460 hc        1 MOL      0.023871
    161 H71        -2.5680   -5.2290   -0.0380 hc        1 MOL      0.064065
    162 H72        -1.3600   -5.9140    1.0720 hc        1 MOL      0.064065
    163 N14        -3.8820   -1.7600    3.3900 n         1 MOL     -0.009676
    164 C55        -4.1050   -0.7250    4.4120 c3        1 MOL     -0.271137
    165 H73        -4.0810    0.2590    3.9430 h1        1 MOL      0.101651
    166 H74        -5.0770   -0.8790    4.8810 h1        1 MOL      0.101651
    167 H75        -3.3230   -0.7850    5.1680 h1        1 MOL      0.101651
    168 H76        -4.6210   -1.8480    2.7080 hn        1 MOL      0.128551
    169 Ca1         1.3460   -2.9830   -2.0760 Ca        1 MOL      1.825369
    170 O24         2.8270   -5.1540   -2.2940 oh        1 MOL     -0.870336
    171 H77         2.9700   -5.7500   -3.0270 ho        1 MOL      0.415442
    172 H78         3.6300   -5.1990   -1.7790 ho        1 MOL      0.415442
    173 O25        -0.3230   -2.9510   -4.0120 oh        1 MOL     -0.870336
    174 H79        -0.7580   -3.7550   -4.3050 ho        1 MOL      0.415442
    175 H80        -0.9570   -2.2550   -4.2130 ho        1 MOL      0.415442
    176 O26         3.2970   -2.9860   -4.0590 oh        1 MOL     -0.870336
    177 H81         3.6010   -2.4990   -4.8280 ho        1 MOL      0.415442
    178 H82         3.9320   -3.6840   -3.9410 ho        1 MOL      0.415442
@<TRIPOS>BOND
     1    1    2 1   
     2    1    4 1   
     3    1    5 1   
     4    1    6 1   
     5    2    3 2   
     6    2    7 1   
     7    7    8 1   
     8    7   15 1   
     9    8    9 1   
    10    8   11 1   
    11    8   16 1   
    12    9   10 2   
    13    9   19 1   
    14   11   12 1   
    15   11   17 1   
    16   11   18 1   
    17   12   13 1   
    18   12   14 1   
    19   19   20 1   
    20   19   24 1   
    21   20   21 1   
    22   20   23 1   
    23   20   25 1   
    24   21   22 2   
    25   21   29 1   
    26   23   26 1   
    27   23   27 1   
    28   23   28 1   
    29   29   30 1   
    30   29   37 1   
    31   30   31 1   
    32   30   33 1   
    33   30   38 1   
    34   31   32 2   
    35   31   41 1   
    36   33   34 1   
    37   33   39 1   
    38   33   40 1   
    39   34   35 1   
    40   34   36 1   
    41   41   42 1   
    42   41   45 1   
    43   42   43 1   
    44   42   46 1   
    45   42   47 1   
    46   43   44 2   
    47   43   48 1   
    48   48   49 1   
    49   48   56 1   
    50   49   50 1   
    51   49   52 1   
    52   49   57 1   
    53   50   51 2   
    54   50   62 1   
    55   52   53 1   
    56   52   58 1   
    57   52   59 1   
    58   53   54 1   
    59   53   55 2   
    60   54   60 1   
    61   54   61 1   
    62   62   63 1   
    63   62   66 1   
    64   63   64 1   
    65   63   67 1   
    66   63   68 1   
    67   64   65 2   
    68   64   69 1   
    69   69   70 1   
    70   69   76 1   
    71   70   71 1   
    72   70   73 1   
    73   70   77 1   
    74   71   72 2   
    75   71   83 1   
    76   73   74 1   
    77   73   75 1   
    78   73   78 1   
    79   74   80 1   
    80   74   81 1   
    81   74   82 1   
    82   75   79 1   
    83   83   84 1   
    84   83   91 1   
    85   84   85 1   
    86   84   87 1   
    87   84   92 1   
    88   85   86 2   
    89   85  102 1   
    90   87   88 1   
    91   87   89 1   
    92   87   93 1   
    93   88   90 1   
    94   88   94 1   
    95   88   95 1   
    96   89   96 1   
    97   89   97 1   
    98   89   98 1   
    99   90   99 1   
   100   90  100 1   
   101   90  101 1   
   102  102  103 1   
   103  102  110 1   
   104  103  104 1   
   105  103  106 1   
   106  103  111 1   
   107  104  105 2   
   108  104  114 1   
   109  106  107 1   
   110  106  112 1   
   111  106  113 1   
   112  107  108 1   
   113  107  109 1   
   114  114  115 1   
   115  114  125 1   
   116  115  116 1   
   117  115  118 1   
   118  115  126 1   
   119  116  117 2   
   120  116  134 1   
   121  118  119 1   
   122  118  127 1   
   123  118  128 1   
   124  119  120 ar  
   125  119  121 ar  
   126  120  122 ar  
   127  120  129 1   
   128  121  123 ar  
   129  121  130 1   
   130  122  124 ar  
   131  122  131 1   
   132  123  124 ar  
   133  123  132 1   
   134  124  133 1   
   135  134  135 1   
   136  134  140 1   
   137  135  136 1   
   138  135  138 1   
   139  135  141 1   
   140  136  137 2   
   141  136  148 1   
   142  138  139 1   
   143  138  142 1   
   144  138  143 1   
   145  139  140 1   
   146  139  144 1   
   147  139  145 1   
   148  140  146 1   
   149  140  147 1   
   150  148  149 1   
   151  148  157 1   
   152  149  150 1   
   153  149  152 1   
   154  149  158 1   
   155  150  151 2   
   156  150  163 1   
   157  152  153 1   
   158  152  159 1   
   159  152  160 1   
   160  153  154 1   
   161  153  161 1   
   162  153  162 1   
   163  154  155 1   
   164  154  156 1   
   165  163  164 1   
   166  163  168 1   
   167  164  165 1   
   168  164  166 1   
   169  164  167 1   
   170  170  171 1   
   171  170  172 1   
   172  173  174 1   
   173  173  175 1   
   174  176  177 1   
   175  176  178 1   
@<TRIPOS>SUBSTRUCTURE
     1 MOL         1 TEMP              0 ****  ****    0 ROOT
