@<TRIPOS>MOLECULE
MOL
  189   185     1     0     0
SMALL
resp


@<TRIPOS>ATOM
      1 C1          4.2090    4.3680   -2.9720 c3        1 MOL     -0.441069
      2 C2          5.0760    3.6290   -1.9050 c         1 MOL      0.677911
      3 O1          4.4580    3.2390   -0.9410 o         1 MOL     -0.471664
      4 H1          3.1880    4.4650   -2.6040 hc        1 MOL      0.113544
      5 H2          4.6250    5.3590   -3.1550 hc        1 MOL      0.113544
      6 H3          4.2080    3.7950   -3.8990 hc        1 MOL      0.113544
      7 N1          6.3460    3.2570   -2.1350 n         1 MOL     -0.670016
      8 C3          7.0590    2.0820   -1.5780 c3        1 MOL      0.330826
      9 C4          6.2260    0.8040   -1.4060 c         1 MOL      0.403023
     10 O2          5.8770    0.2920   -0.2900 o         1 MOL     -0.639534
     11 C5          7.9170    2.5330   -0.3730 c3        1 MOL     -0.146861
     12 C6          7.2470    3.4410    0.6270 c         1 MOL      0.762173
     13 O3          6.4130    2.9810    1.4400 o         1 MOL     -0.731225
     14 O4          7.6270    4.6080    0.7120 o         1 MOL     -0.731225
     15 H4          6.7830    3.8000   -2.8720 hn        1 MOL      0.312406
     16 H5          7.7940    1.7660   -2.3250 h1        1 MOL      0.001385
     17 H6          8.7540    3.0250   -0.8710 hc        1 MOL      0.017140
     18 H7          8.2950    1.6120    0.0730 hc        1 MOL      0.017140
     19 N2          5.8580    0.2340   -2.4950 n         1 MOL     -0.375665
     20 C7          5.0780   -0.9890   -2.7600 c3        1 MOL      0.181038
     21 C8          5.6820   -2.3170   -2.2960 c         1 MOL      0.325741
     22 O5          6.1170   -3.1190   -3.1450 o         1 MOL     -0.533855
     23 C9          3.5780   -0.8750   -2.3230 c3        1 MOL      0.048899
     24 C10         2.7670   -2.0270   -2.7930 c3        1 MOL      0.160919
     25 C11         2.8720    0.5160   -2.5910 c3        1 MOL     -0.220348
     26 C12         2.7890   -2.3580   -4.3340 c3        1 MOL     -0.290383
     27 H8          6.0180    0.8770   -3.2580 hn        1 MOL      0.219257
     28 H9          5.0690   -1.1640   -3.8270 h1        1 MOL      0.014315
     29 H10         3.5890   -0.9650   -1.2430 hc        1 MOL     -0.108450
     30 H11         1.7060   -1.8730   -2.5660 hc        1 MOL      0.009153
     31 H12         3.0980   -2.8780   -2.2030 hc        1 MOL      0.009153
     32 H13         2.6480    0.7300   -3.6380 hc        1 MOL      0.038876
     33 H14         1.9770    0.3970   -1.9780 hc        1 MOL      0.038876
     34 H15         3.5010    1.2800   -2.1450 hc        1 MOL      0.038876
     35 H16         2.8530   -1.4590   -4.9420 hc        1 MOL      0.048928
     36 H17         3.6670   -2.9540   -4.5710 hc        1 MOL      0.048928
     37 H18         1.8240   -2.8150   -4.5720 hc        1 MOL      0.048928
     38 N3          5.7850   -2.4910   -0.9570 n         1 MOL     -0.023988
     39 C13         6.4410   -3.6340   -0.3290 c3        1 MOL     -0.286184
     40 C14         5.5680   -4.9030   -0.2160 c         1 MOL      0.734752
     41 O6          6.0850   -5.9770   -0.3810 o         1 MOL     -0.604828
     42 C15         6.9460   -3.2680    1.0460 c3        1 MOL     -0.078042
     43 C16         7.8990   -2.0940    1.0290 c         1 MOL      0.739544
     44 O7          8.6890   -1.8360    0.0590 o         1 MOL     -0.707556
     45 O8          8.0700   -1.4820    2.0810 o         1 MOL     -0.707556
     46 H19         5.4610   -1.7190   -0.3900 hn        1 MOL      0.275956
     47 H20         7.3410   -3.8920   -0.8910 h1        1 MOL      0.098142
     48 H21         7.5090   -4.0750    1.4980 hc        1 MOL      0.048304
     49 H22         6.0890   -3.1310    1.7050 hc        1 MOL      0.048304
     50 N4          4.2510   -4.8460    0.0070 n         1 MOL     -0.662492
     51 C17         3.4820   -3.8420    0.6900 c3        1 MOL      0.356160
     52 C18         2.3580   -4.3780    1.6140 c         1 MOL      0.535707
     53 O9          2.1360   -5.5920    1.6030 o         1 MOL     -0.571024
     54 H23         3.8020   -5.7440    0.1210 hn        1 MOL      0.279817
     55 H24         3.0500   -3.2760   -0.1400 h1        1 MOL     -0.018890
     56 H25         4.2270   -3.2650    1.2500 h1        1 MOL     -0.018890
     57 N5          1.6200   -3.5600    2.3460 n         1 MOL     -0.392937
     58 C19         1.7460   -2.0910    2.6940 c3        1 MOL      0.321432
     59 C20         2.1070   -1.1220    1.5440 c         1 MOL      0.349721
     60 O10         3.2560   -0.7360    1.3020 o         1 MOL     -0.616654
     61 C21         2.5770   -1.8450    3.9640 c3        1 MOL     -0.484994
     62 C22         3.7630   -2.6850    4.1930 c         1 MOL      0.791356
     63 O11         4.9140   -2.1630    4.3560 o         1 MOL     -0.713865
     64 O12         3.6580   -3.9170    4.2560 o         1 MOL     -0.713865
     65 H26         0.7380   -3.9610    2.6470 hn        1 MOL      0.236617
     66 H27         0.7500   -1.8090    3.0260 h1        1 MOL      0.048915
     67 H28         1.8340   -2.0690    4.7240 hc        1 MOL      0.113063
     68 H29         2.8480   -0.7870    4.0620 hc        1 MOL      0.113063
     69 N6          1.1120   -0.7120    0.7180 n         1 MOL     -0.436520
     70 C23        -0.2620   -1.2030    0.6330 c3        1 MOL     -0.072308
     71 C24        -0.5010   -2.5840    0.0310 c         1 MOL      0.428839
     72 O13         0.2140   -2.9590   -0.8780 o         1 MOL     -0.490041
     73 H30         1.3490    0.0710    0.1190 hn        1 MOL      0.497055
     74 H31        -0.7120   -0.4530   -0.0120 h1        1 MOL      0.044994
     75 H32        -0.7820   -1.2250    1.5980 h1        1 MOL      0.044994
     76 N7         -1.6190   -3.2060    0.3430 n         1 MOL     -0.413680
     77 C25        -1.9740   -4.3140   -0.6040 c3        1 MOL     -0.067384
     78 C26        -2.6530   -3.9670   -1.9880 c         1 MOL      0.462362
     79 O14        -2.9650   -4.7720   -2.8200 o         1 MOL     -0.472876
     80 C27        -2.9170   -5.3030    0.1790 c3        1 MOL      0.090605
     81 C28        -4.3740   -4.8630    0.3350 c3        1 MOL     -0.177382
     82 C29        -5.1110   -5.8530    1.2020 c         1 MOL      0.673259
     83 N8         -6.4230   -5.9030    1.1080 n         1 MOL     -0.831885
     84 O15        -4.5740   -6.3620    2.1790 o         1 MOL     -0.575700
     85 H33        -2.2130   -2.8760    1.0860 hn        1 MOL      0.309780
     86 H34        -1.1210   -4.9690   -0.7840 h1        1 MOL      0.150835
     87 H35        -2.4760   -5.6770    1.1040 hc        1 MOL      0.009254
     88 H36        -3.0140   -6.1910   -0.4450 hc        1 MOL      0.009254
     89 H37        -4.8810   -4.8800   -0.6360 hc        1 MOL      0.055090
     90 H38        -4.4070   -3.8970    0.8400 hc        1 MOL      0.055090
     91 H39        -6.9510   -5.5060    0.3370 hn        1 MOL      0.361648
     92 H40        -6.9090   -6.4420    1.8130 hn        1 MOL      0.361648
     93 N9         -2.9360   -2.6410   -2.1310 n         1 MOL     -0.425987
     94 C30        -3.3490   -1.9950   -3.4570 c3        1 MOL     -0.068038
     95 C31        -4.6030   -1.0830   -3.2530 c         1 MOL      0.398940
     96 O16        -5.0810   -0.4840   -4.2420 o         1 MOL     -0.526620
     97 C32        -2.2370   -1.2160   -4.2000 c3        1 MOL      0.136440
     98 C33        -1.1170   -2.0830   -4.7330 c3        1 MOL     -0.211172
     99 C34        -1.6300   -0.2450   -3.2020 c3        1 MOL     -0.211172
    100 H41        -2.6040   -1.9740   -1.4480 hn        1 MOL      0.230688
    101 H42        -3.6190   -2.8690   -4.0560 h1        1 MOL      0.122231
    102 H43        -2.6920   -0.6370   -4.9940 hc        1 MOL      0.028521
    103 H44        -0.3480   -1.4790   -5.2130 hc        1 MOL      0.064930
    104 H45        -0.6770   -2.6620   -3.9220 hc        1 MOL      0.064930
    105 H46        -1.4440   -2.8460   -5.4430 hc        1 MOL      0.064930
    106 H47        -2.4300    0.3170   -2.7020 hc        1 MOL      0.064930
    107 H48        -0.9730   -0.6980   -2.4570 hc        1 MOL      0.064930
    108 H49        -0.9970    0.3950   -3.8150 hc        1 MOL      0.064930
    109 N10        -5.2300   -1.0990   -2.0870 n         1 MOL     -0.228267
    110 C35        -6.6170   -0.6500   -1.9230 c3        1 MOL      0.044291
    111 C36        -6.7940    0.7140   -1.3550 c         1 MOL      0.573185
    112 O17        -7.8860    1.2200   -1.4090 o         1 MOL     -0.546913
    113 C37        -7.3420   -1.6070   -1.0050 c3        1 MOL     -0.275207
    114 C38        -7.3820   -3.0220   -1.5860 c         1 MOL      0.651173
    115 N11        -7.6070   -3.2200   -2.9060 n         1 MOL     -0.804178
    116 O18        -7.1230   -3.9930   -0.9560 o         1 MOL     -0.547827
    117 H50        -4.7080   -1.4190   -1.2790 hn        1 MOL      0.209208
    118 H51        -7.2080   -0.7640   -2.8370 h1        1 MOL      0.057726
    119 H52        -8.3630   -1.2430   -0.8830 hc        1 MOL      0.104713
    120 H53        -6.8340   -1.6360   -0.0380 hc        1 MOL      0.104713
    121 H54        -7.7600   -2.4370   -3.5200 hn        1 MOL      0.379731
    122 H55        -7.4420   -4.1550   -3.2720 hn        1 MOL      0.379731
    123 N12        -5.7370    1.1980   -0.6800 n         1 MOL     -0.605029
    124 C39        -5.7420    2.4210    0.2150 c3        1 MOL      0.480461
    125 C40        -4.4540    3.2290    0.1310 c         1 MOL      0.287354
    126 O19        -3.4300    2.6660   -0.3480 o         1 MOL     -0.483589
    127 C41        -5.9430    1.9230    1.6540 c3        1 MOL     -0.080807
    128 C42        -7.2290    1.1680    1.9070 ca        1 MOL      0.004200
    129 C43        -8.4560    1.8380    1.7310 ca        1 MOL     -0.136874
    130 C44        -7.1720   -0.2420    2.3040 ca        1 MOL     -0.136874
    131 C45        -9.6270    1.0530    1.9160 ca        1 MOL     -0.243611
    132 C46        -8.3230   -1.0160    2.3880 ca        1 MOL     -0.243611
    133 C47        -9.5420   -0.3250    2.2680 ca        1 MOL      0.316311
    134 O20       -10.6830   -1.0490    2.4630 oh        1 MOL     -0.541863
    135 H56        -4.9410    0.5780   -0.6310 hn        1 MOL      0.308013
    136 H57        -6.5570    3.0890   -0.0530 h1        1 MOL     -0.021208
    137 H58        -5.9680    2.7060    2.3960 hc        1 MOL      0.056227
    138 H59        -5.1700    1.1780    1.8780 hc        1 MOL      0.056227
    139 H60        -8.3360    2.8900    1.5040 ha        1 MOL      0.130060
    140 H61        -6.2290   -0.7260    2.5200 ha        1 MOL      0.130060
    141 H62       -10.6210    1.4880    1.8630 ha        1 MOL      0.144633
    142 H63        -8.2900   -2.0830    2.5400 ha        1 MOL      0.144633
    143 H64       -10.4800   -1.9620    2.6650 ho        1 MOL      0.387993
    144 N13        -4.4140    4.3820    0.8500 n         1 MOL     -0.591491
    145 C48        -3.1650    5.0440    1.5120 c3        1 MOL      0.372426
    146 C49        -2.0400    5.5700    0.6600 c         1 MOL      0.287076
    147 O21        -1.3000    6.4590    0.9250 o         1 MOL     -0.491522
    148 C50        -2.5860    4.1620    2.6510 c3        1 MOL     -0.045386
    149 C51        -3.5360    3.9780    3.8200 c3        1 MOL     -0.397493
    150 C52        -2.8880    3.3040    4.9940 c         1 MOL      0.764028
    151 O22        -2.1560    3.9580    5.7860 o         1 MOL     -0.732239
    152 O23        -3.0170    2.1000    5.1770 o         1 MOL     -0.732239
    153 H65        -5.3230    4.7460    1.0730 hn        1 MOL      0.300476
    154 H66        -3.4800    5.9340    2.0470 h1        1 MOL      0.004719
    155 H67        -1.6840    4.6450    3.0220 hc        1 MOL      0.091761
    156 H68        -2.4440    3.1550    2.2660 hc        1 MOL      0.091761
    157 H69        -4.4070    3.4480    3.4380 hc        1 MOL      0.049097
    158 H70        -3.9260    4.9780    4.0470 hc        1 MOL      0.049097
    159 N14        -1.8890    4.9510   -0.4880 n         1 MOL     -0.468921
    160 C53        -0.6530    5.0310   -1.3260 c3        1 MOL     -0.040908
    161 C54        -0.8010    6.0790   -2.4790 c         1 MOL      0.449437
    162 O24         0.1240    6.1150   -3.2580 o         1 MOL     -0.552148
    163 C55        -0.2040    3.6200   -1.8680 c3        1 MOL      0.045390
    164 C56        -0.0580    2.5500   -0.7840 c3        1 MOL      0.270358
    165 C57         1.1390    2.7630    0.1370 c         1 MOL      0.401787
    166 O25         2.0320    1.9100    0.1780 o         1 MOL     -0.588029
    167 O26         1.1810    3.8110    0.8440 o         1 MOL     -0.588029
    168 H71        -2.5380    4.1970   -0.6600 hn        1 MOL      0.329171
    169 H72         0.1650    5.5070   -0.7900 h1        1 MOL      0.180551
    170 H73         0.7460    3.6900   -2.3850 hc        1 MOL     -0.017984
    171 H74        -1.0050    3.2260   -2.4910 hc        1 MOL     -0.017984
    172 H75         0.0390    1.5550   -1.2170 hc        1 MOL     -0.090874
    173 H76        -0.9050    2.4830   -0.1060 hc        1 MOL     -0.090874
    174 N15        -1.8930    6.7750   -2.7190 n         1 MOL     -0.237880
    175 C58        -2.3640    7.6580   -3.8920 c3        1 MOL     -0.138350
    176 H77        -1.7300    7.4760   -4.7600 h1        1 MOL      0.080858
    177 H78        -3.3970    7.4150   -4.1400 h1        1 MOL      0.080858
    178 H79        -2.2950    8.7080   -3.6070 h1        1 MOL      0.080858
    179 H80        -2.5740    6.5140   -2.0190 hn        1 MOL      0.197172
    180 Ca1         4.2720    1.7180    1.3630 Ca        1 MOL      1.746202
    181 O27         6.0330   -0.0030    2.9590 oh        1 MOL     -0.954374
    182 H81         6.7570   -0.4840    2.5710 ho        1 MOL      0.442325
    183 H82         5.5540   -0.6680    3.4680 ho        1 MOL      0.442325
    184 O28         3.4160    4.3310    2.1490 oh        1 MOL     -0.954374
    185 H83         2.6490    4.4210    1.5860 ho        1 MOL      0.442325
    186 H84         3.0880    4.5020    3.0380 ho        1 MOL      0.442325
    187 O29         3.2400    1.6740    3.9380 oh        1 MOL     -0.954374
    188 H85         3.4100    1.2490    4.7760 ho        1 MOL      0.442325
    189 H86         2.9970    2.5710    4.1760 ho        1 MOL      0.442325
@<TRIPOS>BOND
     1    1    2 1   
     2    1    4 1   
     3    1    5 1   
     4    1    6 1   
     5    2    3 2   
     6    2    7 1   
     7    7    8 1   
     8    7   15 1   
     9    8    9 1   
    10    8   11 1   
    11    8   16 1   
    12    9   10 2   
    13    9   19 1   
    14   11   12 1   
    15   11   17 1   
    16   11   18 1   
    17   12   13 1   
    18   12   14 1   
    19   19   20 1   
    20   19   27 1   
    21   20   21 1   
    22   20   23 1   
    23   20   28 1   
    24   21   22 2   
    25   21   38 1   
    26   23   24 1   
    27   23   25 1   
    28   23   29 1   
    29   24   26 1   
    30   24   30 1   
    31   24   31 1   
    32   25   32 1   
    33   25   33 1   
    34   25   34 1   
    35   26   35 1   
    36   26   36 1   
    37   26   37 1   
    38   38   39 1   
    39   38   46 1   
    40   39   40 1   
    41   39   42 1   
    42   39   47 1   
    43   40   41 2   
    44   40   50 1   
    45   42   43 1   
    46   42   48 1   
    47   42   49 1   
    48   43   44 1   
    49   43   45 1   
    50   50   51 1   
    51   50   54 1   
    52   51   52 1   
    53   51   55 1   
    54   51   56 1   
    55   52   53 2   
    56   52   57 1   
    57   57   58 1   
    58   57   65 1   
    59   58   59 1   
    60   58   61 1   
    61   58   66 1   
    62   59   60 2   
    63   59   69 1   
    64   61   62 1   
    65   61   67 1   
    66   61   68 1   
    67   62   63 1   
    68   62   64 1   
    69   69   70 1   
    70   69   73 1   
    71   70   71 1   
    72   70   74 1   
    73   70   75 1   
    74   71   72 2   
    75   71   76 1   
    76   76   77 1   
    77   76   85 1   
    78   77   78 1   
    79   77   80 1   
    80   77   86 1   
    81   78   79 2   
    82   78   93 1   
    83   80   81 1   
    84   80   87 1   
    85   80   88 1   
    86   81   82 1   
    87   81   89 1   
    88   81   90 1   
    89   82   83 1   
    90   82   84 2   
    91   83   91 1   
    92   83   92 1   
    93   93   94 1   
    94   93  100 1   
    95   94   95 1   
    96   94   97 1   
    97   94  101 1   
    98   95   96 2   
    99   95  109 1   
   100   97   98 1   
   101   97   99 1   
   102   97  102 1   
   103   98  103 1   
   104   98  104 1   
   105   98  105 1   
   106   99  106 1   
   107   99  107 1   
   108   99  108 1   
   109  109  110 1   
   110  109  117 1   
   111  110  111 1   
   112  110  113 1   
   113  110  118 1   
   114  111  112 2   
   115  111  123 1   
   116  113  114 1   
   117  113  119 1   
   118  113  120 1   
   119  114  115 1   
   120  114  116 2   
   121  115  121 1   
   122  115  122 1   
   123  123  124 1   
   124  123  135 1   
   125  124  125 1   
   126  124  127 1   
   127  124  136 1   
   128  125  126 2   
   129  125  144 1   
   130  127  128 1   
   131  127  137 1   
   132  127  138 1   
   133  128  129 ar  
   134  128  130 ar  
   135  129  131 ar  
   136  129  139 1   
   137  130  132 ar  
   138  130  140 1   
   139  131  133 ar  
   140  131  141 1   
   141  132  133 ar  
   142  132  142 1   
   143  133  134 1   
   144  134  143 1   
   145  144  145 1   
   146  144  153 1   
   147  145  146 1   
   148  145  148 1   
   149  145  154 1   
   150  146  147 2   
   151  146  159 1   
   152  148  149 1   
   153  148  155 1   
   154  148  156 1   
   155  149  150 1   
   156  149  157 1   
   157  149  158 1   
   158  150  151 1   
   159  150  152 1   
   160  159  160 1   
   161  159  168 1   
   162  160  161 1   
   163  160  163 1   
   164  160  169 1   
   165  161  162 2   
   166  161  174 1   
   167  163  164 1   
   168  163  170 1   
   169  163  171 1   
   170  164  165 1   
   171  164  172 1   
   172  164  173 1   
   173  165  166 1   
   174  165  167 1   
   175  174  175 1   
   176  174  179 1   
   177  175  176 1   
   178  175  177 1   
   179  175  178 1   
   180  181  182 1   
   181  181  183 1   
   182  184  185 1   
   183  184  186 1   
   184  187  188 1   
   185  187  189 1   
@<TRIPOS>SUBSTRUCTURE
     1 MOL         1 TEMP              0 ****  ****    0 ROOT
