@<TRIPOS>MOLECULE
MOL
  188   182     1     0     0
SMALL
resp


@<TRIPOS>ATOM
      1 C1          5.8600    2.4780    2.4110 c3        1 MOL     -0.468310
      2 C2          6.1460    1.7580    1.1580 c         1 MOL      0.807026
      3 O1          5.4290    0.7330    0.9080 o         1 MOL     -0.645385
      4 H1          6.2050    1.8840    3.2580 hc        1 MOL      0.116220
      5 H2          6.3770    3.4370    2.4060 hc        1 MOL      0.116220
      6 H3          4.7860    2.6440    2.4980 hc        1 MOL      0.116220
      7 N1          7.1190    2.2180    0.3690 n         1 MOL     -0.457301
      8 C3          7.3980    1.7590   -1.0360 c3        1 MOL     -0.004184
      9 C4          7.6110    0.2890   -1.3420 c         1 MOL      0.418155
     10 O2          7.6790   -0.0440   -2.5440 o         1 MOL     -0.466753
     11 C5          6.3150    2.3820   -1.9610 c3        1 MOL     -0.191542
     12 C6          5.9320    3.8410   -1.7390 c         1 MOL      0.693051
     13 O3          6.7510    4.6420   -1.3120 o         1 MOL     -0.639254
     14 O4          4.7840    4.3190   -1.8410 o         1 MOL     -0.639254
     15 H4          7.7890    2.7790    0.8710 hn        1 MOL      0.280217
     16 H5          8.3360    2.2590   -1.3170 h1        1 MOL      0.111945
     17 H6          5.3640    1.8770   -1.8530 hc        1 MOL      0.071699
     18 H7          6.6230    2.2480   -3.0020 hc        1 MOL      0.071699
     19 N2          7.6710   -0.5990   -0.3280 n         1 MOL     -0.301592
     20 C7          7.8460   -2.0790   -0.5110 c3        1 MOL     -0.227539
     21 C8          6.5990   -2.8100   -1.0060 c         1 MOL      0.611669
     22 O5          6.7040   -3.8240   -1.6110 o         1 MOL     -0.559398
     23 C9          8.5290   -2.6810    0.7970 c3        1 MOL      0.070302
     24 C10         7.8130   -2.5330    2.1300 c3        1 MOL      0.104335
     25 C11         8.5430   -2.8780    3.4480 c3        1 MOL     -0.182752
     26 C12         9.7000   -1.8640    3.7930 c3        1 MOL      0.139212
     27 N3         10.2830   -2.1450    5.0930 n4        1 MOL     -0.219481
     28 H8          7.4690   -0.2450    0.5970 hn        1 MOL      0.152306
     29 H9          8.5490   -2.3340   -1.3150 h1        1 MOL      0.152380
     30 H10         9.5500   -2.2990    0.9010 hc        1 MOL      0.008468
     31 H11         8.7610   -3.7450    0.6920 hc        1 MOL      0.008468
     32 H12         6.8970   -3.1130    2.0100 hc        1 MOL     -0.006785
     33 H13         7.6140   -1.4630    2.1890 hc        1 MOL     -0.006785
     34 H14         8.9720   -3.8580    3.2660 hc        1 MOL      0.069076
     35 H15         7.8200   -2.9190    4.2680 hc        1 MOL      0.069076
     36 H16         9.3850   -0.8170    3.7530 hx        1 MOL      0.041249
     37 H17        10.4170   -1.9380    2.9740 hx        1 MOL      0.041249
     38 H18        11.0640   -1.5010    5.2160 hn        1 MOL      0.233849
     39 H19         9.7080   -2.1420    5.9190 hn        1 MOL      0.233849
     40 H20        10.7450   -3.0480    5.1800 hn        1 MOL      0.233849
     41 N4          5.3740   -2.2670   -0.7280 n         1 MOL     -0.196669
     42 C13         4.0180   -2.8940   -0.9020 c3        1 MOL     -0.355496
     43 C14         3.5180   -2.6340   -2.2500 c         1 MOL      0.679314
     44 O6          3.6420   -1.5220   -2.6850 o         1 MOL     -0.480025
     45 C15         3.1750   -2.4560    0.3280 c3        1 MOL     -0.059914
     46 C16         1.9350   -3.2880    0.5220 c         1 MOL      0.667421
     47 O7          1.0560   -3.3570   -0.3820 o         1 MOL     -0.688419
     48 O8          1.7450   -3.9030    1.6150 o         1 MOL     -0.688419
     49 H21         5.4310   -1.3580   -0.2990 hn        1 MOL      0.246672
     50 H22         4.2260   -3.9600   -0.7580 h1        1 MOL      0.100158
     51 H23         2.8220   -1.4340    0.1480 hc        1 MOL      0.056821
     52 H24         3.8240   -2.4380    1.2080 hc        1 MOL      0.056821
     53 N5          2.8380   -3.5870   -2.8850 n         1 MOL     -0.402181
     54 C17         2.0110   -3.4180   -4.0940 c3        1 MOL     -0.095916
     55 C18         0.9510   -2.3750   -4.1350 c         1 MOL      0.456179
     56 O9          0.5900   -1.8270   -5.2130 o         1 MOL     -0.532041
     57 H25         2.7440   -4.4510   -2.3780 hn        1 MOL      0.256721
     58 H26         1.4080   -4.3130   -4.2270 h1        1 MOL      0.100921
     59 H27         2.6450   -3.3240   -4.9760 h1        1 MOL      0.100921
     60 N6          0.3850   -2.0490   -2.9720 n         1 MOL     -0.243919
     61 C19        -0.4750   -0.8680   -2.6640 c3        1 MOL     -0.072489
     62 C20         0.2870    0.4070   -2.3990 c         1 MOL      0.682775
     63 O10        -0.2670    1.4850   -2.6230 o         1 MOL     -0.549731
     64 C21        -1.3680   -1.3300   -1.5430 c3        1 MOL     -0.507369
     65 C22        -2.1690   -2.6550   -1.7850 c         1 MOL      0.762076
     66 N7         -3.2200   -2.6530   -2.5910 n         1 MOL     -0.786378
     67 O11        -1.9180   -3.6960   -1.2390 o         1 MOL     -0.620820
     68 H28         0.8040   -2.4950   -2.1720 hn        1 MOL      0.203365
     69 H29        -1.1140   -0.7060   -3.5290 h1        1 MOL      0.103936
     70 H30        -2.0930   -0.5490   -1.2970 hc        1 MOL      0.177690
     71 H31        -0.7550   -1.5260   -0.6630 hc        1 MOL      0.177690
     72 H32        -3.4930   -1.7910   -3.0410 hn        1 MOL      0.379565
     73 H33        -3.7670   -3.5050   -2.6690 hn        1 MOL      0.379565
     74 N8          1.5570    0.3260   -1.9130 n         1 MOL     -0.422088
     75 C23         2.3830    1.4950   -1.5630 c3        1 MOL      0.040715
     76 C24         1.7250    2.3760   -0.5390 c         1 MOL      0.569943
     77 O12         1.4080    1.9490    0.5510 o         1 MOL     -0.578204
     78 H34         2.0380   -0.5630   -1.9810 hn        1 MOL      0.220545
     79 H35         2.7540    2.0830   -2.4050 h1        1 MOL      0.063910
     80 H36         3.3190    1.0970   -1.1540 h1        1 MOL      0.063910
     81 N9          1.4860    3.6370   -0.9700 n         1 MOL     -0.715505
     82 C25         0.7870    4.7490   -0.2900 c3        1 MOL      0.636808
     83 C26        -0.6400    4.5360    0.3180 c         1 MOL      0.155462
     84 O13        -1.5300    5.3930    0.1510 o         1 MOL     -0.454542
     85 C27         1.7750    5.4060    0.6950 c3        1 MOL     -0.234021
     86 C28         1.4310    6.8460    1.0680 ca        1 MOL      0.053667
     87 C29         1.4750    7.9620    0.2070 ca        1 MOL     -0.206123
     88 C30         0.7550    7.1470    2.2770 ca        1 MOL     -0.206123
     89 C31         1.0260    9.2790    0.5560 ca        1 MOL     -0.160444
     90 C32         0.2690    8.3860    2.6320 ca        1 MOL     -0.160444
     91 C33         0.4160    9.4680    1.7780 ca        1 MOL      0.215755
     92 O14        -0.0970   10.7290    1.9560 oh        1 MOL     -0.429343
     93 H37         1.7700    3.7700   -1.9320 hn        1 MOL      0.335930
     94 H38         0.5330    5.4430   -1.0870 h1        1 MOL     -0.011764
     95 H39         2.7720    5.5530    0.2880 hc        1 MOL      0.104564
     96 H40         1.8130    4.7540    1.5720 hc        1 MOL      0.104564
     97 H41         2.0250    7.9570   -0.7260 ha        1 MOL      0.140489
     98 H42         0.5380    6.3860    3.0190 ha        1 MOL      0.140489
     99 H43         1.1700   10.1060   -0.1280 ha        1 MOL      0.122778
    100 H44        -0.1850    8.5270    3.6020 ha        1 MOL      0.122778
    101 H45        -0.5270   10.6610    2.8060 ho        1 MOL      0.325118
    102 N10        -0.9300    3.3280    0.9540 n         1 MOL     -0.259942
    103 C34        -2.1990    2.8590    1.3450 c3        1 MOL     -0.111765
    104 C35        -3.0230    2.4480    0.1650 c         1 MOL      0.513245
    105 O15        -3.7940    1.5070    0.2450 o         1 MOL     -0.602511
    106 C36        -2.7990    3.6450    2.5310 c3        1 MOL      0.133948
    107 C37        -1.8360    3.8930    3.6830 c3        1 MOL      0.074013
    108 C38        -4.0300    2.9580    3.0210 c3        1 MOL     -0.187610
    109 C39        -1.4540    2.6110    4.4430 c3        1 MOL     -0.169383
    110 H46        -0.1690    2.6730    1.0700 hn        1 MOL      0.287524
    111 H47        -2.0190    1.8480    1.7100 h1        1 MOL      0.109911
    112 H48        -3.1050    4.6620    2.2790 hc        1 MOL      0.009393
    113 H49        -2.2440    4.5470    4.4590 hc        1 MOL     -0.025223
    114 H50        -0.9190    4.4110    3.4170 hc        1 MOL     -0.025223
    115 H51        -3.8600    1.8930    3.1530 hc        1 MOL      0.050292
    116 H52        -4.2770    3.4180    3.9820 hc        1 MOL      0.050292
    117 H53        -4.8840    3.2020    2.3820 hc        1 MOL      0.050292
    118 H54        -2.3180    2.0290    4.7600 hc        1 MOL      0.037913
    119 H55        -0.7920    2.0150    3.8210 hc        1 MOL      0.037913
    120 H56        -0.8480    2.9240    5.3010 hc        1 MOL      0.037913
    121 N11        -2.9720    3.1130   -0.9600 n         1 MOL     -0.402124
    122 C40        -3.5730    2.5600   -2.2270 c3        1 MOL      0.094994
    123 C41        -5.1210    2.3640   -2.2370 c         1 MOL      0.366348
    124 O16        -5.5860    1.4840   -3.0050 o         1 MOL     -0.497480
    125 C42        -3.2360    3.5220   -3.3790 c3        1 MOL      0.073805
    126 O17        -1.8230    3.8640   -3.1670 oh        1 MOL     -0.562738
    127 H57        -2.3230    3.8850   -1.0610 hn        1 MOL      0.290380
    128 H58        -3.0900    1.5950   -2.3890 h1        1 MOL      0.066283
    129 H59        -3.8320    4.4220   -3.3340 h1        1 MOL      0.075144
    130 H60        -3.3480    2.8950   -4.2720 h1        1 MOL      0.075144
    131 H61        -1.2990    3.0540   -3.2530 ho        1 MOL      0.374800
    132 N12        -5.9010    3.1220   -1.4030 n         1 MOL     -0.411759
    133 C43        -7.3740    3.0220   -1.3200 c3        1 MOL      0.189414
    134 C44        -8.1370    1.6340   -1.0590 c         1 MOL      0.533059
    135 O18        -9.3730    1.5500   -1.0250 o         1 MOL     -0.536122
    136 C45        -8.0170    3.7640   -2.5240 c3        1 MOL     -0.316618
    137 H62        -5.4820    3.8490   -0.8560 hn        1 MOL      0.311675
    138 H63        -7.6340    3.6550   -0.4740 h1        1 MOL      0.057045
    139 H64        -7.5550    3.5460   -3.4890 hc        1 MOL      0.087208
    140 H65        -9.0930    3.5880   -2.6010 hc        1 MOL      0.087208
    141 H66        -7.8740    4.7890   -2.1670 hc        1 MOL      0.087208
    142 N13        -7.3620    0.6230   -0.6650 n         1 MOL     -0.660215
    143 C46        -7.5850   -0.8150   -0.6990 c3        1 MOL      0.731616
    144 C47        -6.9050   -1.4590    0.4940 c         1 MOL      0.256901
    145 O19        -5.9740   -0.8800    1.0550 o         1 MOL     -0.382619
    146 C48        -7.1510   -1.5400   -1.9750 c3        1 MOL     -0.277712
    147 H67        -6.4170    0.9520   -0.6190 hn        1 MOL      0.265712
    148 H68        -8.6620   -0.9320   -0.5890 h1        1 MOL     -0.100568
    149 H69        -6.1290   -1.2710   -2.2220 hc        1 MOL      0.059714
    150 H70        -7.3590   -2.6060   -1.9000 hc        1 MOL      0.059714
    151 H71        -7.8190   -1.2190   -2.7830 hc        1 MOL      0.059714
    152 N14        -7.2950   -2.7460    0.8360 n         1 MOL     -0.465460
    153 C49        -6.8200   -3.5010    2.0190 c3        1 MOL     -0.250347
    154 C50        -6.8260   -2.8030    3.3520 c         1 MOL      0.486272
    155 O20        -6.1420   -3.2380    4.2510 o         1 MOL     -0.479569
    156 C51        -5.3290   -3.9800    1.7120 c3        1 MOL      0.276307
    157 C52        -5.1440   -5.1010    0.7080 c3        1 MOL     -0.117739
    158 C53        -3.8960   -5.9710    0.7960 c         1 MOL      0.707139
    159 O21        -3.8310   -7.1470    0.3840 o         1 MOL     -0.733185
    160 O22        -2.8930   -5.4150    1.2870 o         1 MOL     -0.733185
    161 H72        -8.0830   -3.1980    0.3810 hn        1 MOL      0.285753
    162 H73        -7.4650   -4.3850    2.0330 h1        1 MOL      0.140417
    163 H74        -4.9590   -4.4080    2.6480 hc        1 MOL     -0.010120
    164 H75        -4.7190   -3.0830    1.5400 hc        1 MOL     -0.010120
    165 H76        -5.2540   -4.6510   -0.2800 hc        1 MOL     -0.005909
    166 H77        -5.9700   -5.7740    0.9080 hc        1 MOL     -0.005909
    167 N15        -7.6530   -1.7400    3.4270 n         1 MOL     -0.343881
    168 C54        -7.7610   -0.8830    4.5990 c3        1 MOL      0.048297
    169 H78        -7.2030   -1.3250    5.4250 h1        1 MOL      0.033060
    170 H79        -7.3510    0.1000    4.3700 h1        1 MOL      0.033060
    171 H80        -8.8090   -0.7830    4.8830 h1        1 MOL      0.033060
    172 H81        -8.1170   -1.4150    2.5930 hn        1 MOL      0.261881
    173 Ca1        -0.4520   -5.0610    0.6440 Ca        1 MOL      1.769278
    174 O23        -0.3300   -5.4550    3.2960 oh        1 MOL     -0.830931
    175 H82         0.3780   -6.1000    3.2450 ho        1 MOL      0.406631
    176 H83        -0.1800   -5.0000    4.1190 ho        1 MOL      0.406631
    177 O24        -1.1300   -7.5700    0.7290 oh        1 MOL     -0.830931
    178 H84        -0.8830   -8.4540    1.0130 ho        1 MOL      0.406631
    179 H85        -2.0800   -7.5850    0.7130 ho        1 MOL      0.406631
    180 O25        -0.2410   -6.1270   -1.9060 oh        1 MOL     -0.830931
    181 H86        -0.2180   -7.0330   -2.2240 ho        1 MOL      0.406631
    182 H87        -0.4130   -5.6060   -2.6800 ho        1 MOL      0.406631
    183 O26        -0.7890   -2.7040    1.6990 oh        1 MOL     -0.830931
    184 H88        -0.1560   -2.0360    1.9500 ho        1 MOL      0.406631
    185 H89        -1.5950   -2.2200    1.5200 ho        1 MOL      0.406631
    186 O27         1.8960   -6.6530    0.4850 oh        1 MOL     -0.830931
    187 H90         2.3610   -7.2930    1.0270 ho        1 MOL      0.406631
    188 H91         2.4350   -6.5700   -0.2950 ho        1 MOL      0.406631
@<TRIPOS>BOND
     1    1    2 1   
     2    1    4 1   
     3    1    5 1   
     4    1    6 1   
     5    2    3 2   
     6    2    7 1   
     7    7    8 1   
     8    7   15 1   
     9    8    9 1   
    10    8   11 1   
    11    8   16 1   
    12    9   10 2   
    13    9   19 1   
    14   11   12 1   
    15   11   17 1   
    16   11   18 1   
    17   12   13 1   
    18   12   14 1   
    19   19   20 1   
    20   19   28 1   
    21   20   21 1   
    22   20   23 1   
    23   20   29 1   
    24   21   22 2   
    25   21   41 1   
    26   23   24 1   
    27   23   30 1   
    28   23   31 1   
    29   24   25 1   
    30   24   32 1   
    31   24   33 1   
    32   25   26 1   
    33   25   34 1   
    34   25   35 1   
    35   26   27 1   
    36   26   36 1   
    37   26   37 1   
    38   27   38 1   
    39   27   39 1   
    40   27   40 1   
    41   41   42 1   
    42   41   49 1   
    43   42   43 1   
    44   42   45 1   
    45   42   50 1   
    46   43   44 2   
    47   43   53 1   
    48   45   46 1   
    49   45   51 1   
    50   45   52 1   
    51   46   47 1   
    52   46   48 1   
    53   53   54 1   
    54   53   57 1   
    55   54   55 1   
    56   54   58 1   
    57   54   59 1   
    58   55   56 2   
    59   55   60 1   
    60   60   61 1   
    61   60   68 1   
    62   61   62 1   
    63   61   64 1   
    64   61   69 1   
    65   62   63 2   
    66   62   74 1   
    67   64   65 1   
    68   64   70 1   
    69   64   71 1   
    70   65   66 1   
    71   65   67 2   
    72   66   72 1   
    73   66   73 1   
    74   74   75 1   
    75   74   78 1   
    76   75   76 1   
    77   75   79 1   
    78   75   80 1   
    79   76   77 2   
    80   76   81 1   
    81   81   82 1   
    82   81   93 1   
    83   82   83 1   
    84   82   85 1   
    85   82   94 1   
    86   83   84 2   
    87   83  102 1   
    88   85   86 1   
    89   85   95 1   
    90   85   96 1   
    91   86   87 ar  
    92   86   88 ar  
    93   87   89 ar  
    94   87   97 1   
    95   88   90 ar  
    96   88   98 1   
    97   89   91 ar  
    98   89   99 1   
    99   90   91 ar  
   100   90  100 1   
   101   91   92 1   
   102   92  101 1   
   103  102  103 1   
   104  102  110 1   
   105  103  104 1   
   106  103  106 1   
   107  103  111 1   
   108  104  105 2   
   109  104  121 1   
   110  106  107 1   
   111  106  108 1   
   112  106  112 1   
   113  107  109 1   
   114  107  113 1   
   115  107  114 1   
   116  108  115 1   
   117  108  116 1   
   118  108  117 1   
   119  109  118 1   
   120  109  119 1   
   121  109  120 1   
   122  121  122 1   
   123  121  127 1   
   124  122  123 1   
   125  122  125 1   
   126  122  128 1   
   127  123  124 2   
   128  123  132 1   
   129  125  126 1   
   130  125  129 1   
   131  125  130 1   
   132  126  131 1   
   133  132  133 1   
   134  132  137 1   
   135  133  134 1   
   136  133  136 1   
   137  133  138 1   
   138  134  135 2   
   139  134  142 1   
   140  136  139 1   
   141  136  140 1   
   142  136  141 1   
   143  142  143 1   
   144  142  147 1   
   145  143  144 1   
   146  143  146 1   
   147  143  148 1   
   148  144  145 2   
   149  144  152 1   
   150  146  149 1   
   151  146  150 1   
   152  146  151 1   
   153  152  153 1   
   154  152  161 1   
   155  153  154 1   
   156  153  156 1   
   157  153  162 1   
   158  154  155 2   
   159  154  167 1   
   160  156  157 1   
   161  156  163 1   
   162  156  164 1   
   163  157  158 1   
   164  157  165 1   
   165  157  166 1   
   166  158  159 1   
   167  158  160 1   
   168  167  168 1   
   169  167  172 1   
   170  168  169 1   
   171  168  170 1   
   172  168  171 1   
   173  174  175 1   
   174  174  176 1   
   175  177  178 1   
   176  177  179 1   
   177  180  181 1   
   178  180  182 1   
   179  183  184 1   
   180  183  185 1   
   181  186  187 1   
   182  186  188 1   
@<TRIPOS>SUBSTRUCTURE
     1 MOL         1 TEMP              0 ****  ****    0 ROOT
