@<TRIPOS>MOLECULE
MOL
  189   185     1     0     0
SMALL
resp


@<TRIPOS>ATOM
      1 C1          5.0050    3.9220   -3.7090 c3        1 MOL     -0.422116
      2 C2          5.8110    3.1460   -2.5360 c         1 MOL      0.766211
      3 O1          5.2480    2.9510   -1.4310 o         1 MOL     -0.664030
      4 H1          5.6850    4.5970   -4.2290 hc        1 MOL      0.114902
      5 H2          4.6020    3.1960   -4.4150 hc        1 MOL      0.114902
      6 H3          4.1890    4.4960   -3.2710 hc        1 MOL      0.114902
      7 N1          6.9170    2.5150   -2.7890 n         1 MOL     -0.727778
      8 C3          7.4570    1.3030   -2.1300 c3        1 MOL      0.518058
      9 C4          6.4140    0.2420   -1.8160 c         1 MOL      0.104348
     10 O2          5.8730    0.2190   -0.6960 o         1 MOL     -0.547277
     11 C5          8.4980    1.5270   -0.9600 c3        1 MOL     -0.331068
     12 C6          8.2130    2.6820    0.0100 c         1 MOL      0.747994
     13 O3          7.4380    2.5210    0.9510 o         1 MOL     -0.708354
     14 O4          8.8570    3.8000   -0.0670 o         1 MOL     -0.708354
     15 H4          7.4670    2.8860   -3.5390 hn        1 MOL      0.329935
     16 H5          8.0290    0.7780   -2.8920 h1        1 MOL     -0.042968
     17 H6          9.4100    1.7730   -1.4900 hc        1 MOL      0.059432
     18 H7          8.7470    0.5910   -0.4560 hc        1 MOL      0.059432
     19 N2          6.1870   -0.6070   -2.8020 n         1 MOL     -0.243864
     20 C7          5.2660   -1.7200   -2.8020 c3        1 MOL      0.057681
     21 C8          5.7090   -2.7830   -1.7810 c         1 MOL      0.278936
     22 O5          6.1290   -3.8250   -2.2900 o         1 MOL     -0.567878
     23 C9          3.8700   -1.3170   -2.6130 c3        1 MOL      0.399271
     24 C10         2.9880   -2.4360   -3.2310 c3        1 MOL     -0.135476
     25 C11         3.5340    0.1000   -3.1460 c3        1 MOL     -0.037392
     26 C12         2.6900   -2.5270   -4.7880 c3        1 MOL     -0.400351
     27 H8          6.6060   -0.4120   -3.7060 hn        1 MOL      0.249382
     28 H9          5.3440   -2.1260   -3.8080 h1        1 MOL      0.033900
     29 H10         3.6170   -1.2490   -1.5560 hc        1 MOL     -0.269708
     30 H11         2.0170   -2.3320   -2.7450 hc        1 MOL      0.093568
     31 H12         3.3750   -3.3720   -2.8410 hc        1 MOL      0.093568
     32 H13         4.0600    0.2140   -4.0930 hc        1 MOL     -0.010213
     33 H14         2.4650    0.1650   -3.3580 hc        1 MOL     -0.010213
     34 H15         3.7460    0.8940   -2.4380 hc        1 MOL     -0.010213
     35 H16         2.2560   -3.5200   -4.9260 hc        1 MOL      0.097555
     36 H17         2.0500   -1.7410   -5.1820 hc        1 MOL      0.097555
     37 H18         3.6780   -2.4630   -5.2500 hc        1 MOL      0.097555
     38 N3          5.8030   -2.5660   -0.4790 n         1 MOL     -0.002254
     39 C13         6.2890   -3.5490    0.4670 c3        1 MOL      0.074544
     40 C14         5.3830   -4.7880    0.7000 c         1 MOL      0.472921
     41 O6          5.9420   -5.8690    0.5980 o         1 MOL     -0.567303
     42 C15         6.7350   -2.8430    1.7370 c3        1 MOL     -0.233939
     43 C16         7.2170   -3.6810    2.9250 c         1 MOL      0.754152
     44 O7          6.4420   -3.7520    3.9080 o         1 MOL     -0.746686
     45 O8          8.3380   -4.2360    2.8690 o         1 MOL     -0.746686
     46 H19         5.5000   -1.6190   -0.3090 hn        1 MOL      0.219761
     47 H20         7.1760   -3.9910    0.0140 h1        1 MOL      0.048524
     48 H21         6.0670   -2.0760    2.1100 hc        1 MOL      0.045761
     49 H22         7.5690   -2.2280    1.3870 hc        1 MOL      0.045761
     50 N4          4.1720   -4.7130    1.0790 n         1 MOL     -0.333597
     51 C17         3.2950   -3.5720    1.1790 c3        1 MOL      0.114316
     52 C18         2.1430   -3.7530    2.1320 c         1 MOL      0.600203
     53 O9          1.6550   -4.8950    2.3270 o         1 MOL     -0.599960
     54 H23         3.7130   -5.6070    1.1880 hn        1 MOL      0.240830
     55 H24         2.8970   -3.4000    0.1750 h1        1 MOL     -0.012696
     56 H25         3.8840   -2.6880    1.4450 h1        1 MOL     -0.012696
     57 N5          1.5550   -2.7460    2.7190 n         1 MOL     -0.498145
     58 C19         1.8580   -1.3120    2.7420 c3        1 MOL      0.092439
     59 C20         2.1960   -0.8100    1.3230 c         1 MOL      0.365569
     60 O10         3.2260   -0.1810    1.1610 o         1 MOL     -0.518051
     61 C21         2.9530   -0.9570    3.8040 c3        1 MOL     -0.082688
     62 C22         2.9240    0.5100    4.2000 c         1 MOL      0.683555
     63 O11         3.4640    1.3350    3.4340 o         1 MOL     -0.694078
     64 O12         2.4200    0.7790    5.3000 o         1 MOL     -0.694078
     65 H26         0.7440   -2.9620    3.2790 hn        1 MOL      0.282080
     66 H27         0.9820   -0.7380    3.0320 h1        1 MOL      0.087790
     67 H28         3.9190   -1.3300    3.4610 hc        1 MOL      0.030447
     68 H29         2.8110   -1.4900    4.7480 hc        1 MOL      0.030447
     69 N6          1.2270   -0.8830    0.4100 n         1 MOL     -0.218913
     70 C23        -0.1370   -1.4450    0.5630 c3        1 MOL     -0.201465
     71 C24        -0.4540   -2.8620    0.0000 c         1 MOL      0.440631
     72 O13         0.1210   -3.2940   -0.9600 o         1 MOL     -0.459898
     73 H30         1.4720   -0.6440   -0.5370 hn        1 MOL      0.318624
     74 H31        -0.8640   -0.7930    0.0760 h1        1 MOL      0.096236
     75 H32        -0.4530   -1.3810    1.6010 h1        1 MOL      0.096236
     76 N7         -1.5060   -3.5360    0.4870 n         1 MOL     -0.364451
     77 C25        -2.1300   -4.6300   -0.2320 c3        1 MOL      0.002116
     78 C26        -2.7040   -4.3430   -1.6060 c         1 MOL      0.559641
     79 O14        -2.6480   -5.2140   -2.4420 o         1 MOL     -0.518719
     80 C27        -3.1800   -5.3770    0.6060 c3        1 MOL      0.093140
     81 C28        -4.4330   -4.6610    0.8150 c3        1 MOL     -0.124467
     82 C29        -5.3030   -5.1410    1.9460 c         1 MOL      0.681845
     83 N8         -6.5760   -4.8100    1.9010 n         1 MOL     -0.854115
     84 O15        -4.9580   -5.6570    2.9870 o         1 MOL     -0.576394
     85 H33        -1.8730   -3.1880    1.3660 hn        1 MOL      0.264769
     86 H34        -1.2980   -5.2910   -0.4750 h1        1 MOL      0.094518
     87 H35        -2.7890   -5.6030    1.6060 hc        1 MOL     -0.009439
     88 H36        -3.4440   -6.3240    0.1530 hc        1 MOL     -0.009439
     89 H37        -4.9590   -4.7050   -0.1400 hc        1 MOL      0.039111
     90 H38        -4.2050   -3.6570    1.1690 hc        1 MOL      0.039111
     91 H39        -6.9840   -4.3940    1.0800 hn        1 MOL      0.371218
     92 H40        -7.1990   -5.0020    2.6720 hn        1 MOL      0.371218
     93 N9         -3.1800   -3.0860   -1.8300 n         1 MOL     -0.408008
     94 C30        -3.5920   -2.5410   -3.1450 c3        1 MOL     -0.209642
     95 C31        -4.9830   -1.8580   -3.1840 c         1 MOL      0.732997
     96 O16        -5.5760   -1.8390   -4.2440 o         1 MOL     -0.569179
     97 C32        -2.4050   -1.7990   -3.8320 c3        1 MOL      0.078761
     98 C33        -1.2380   -2.6650   -4.3200 c3        1 MOL     -0.157037
     99 C34        -2.0120   -0.5600   -3.0580 c3        1 MOL     -0.157037
    100 H41        -3.1670   -2.4280   -1.0590 hn        1 MOL      0.232298
    101 H42        -3.6970   -3.4390   -3.7670 h1        1 MOL      0.122809
    102 H43        -2.8020   -1.4280   -4.7820 hc        1 MOL      0.013131
    103 H44        -0.8400   -3.3030   -3.5300 hc        1 MOL      0.054562
    104 H45        -1.4790   -3.3820   -5.1010 hc        1 MOL      0.054562
    105 H46        -0.3920   -2.1150   -4.7420 hc        1 MOL      0.054562
    106 H47        -1.5700   -0.8190   -2.0910 hc        1 MOL      0.054562
    107 H48        -1.1800   -0.0900   -3.5640 hc        1 MOL      0.054562
    108 H49        -2.8550    0.1280   -2.9890 hc        1 MOL      0.054562
    109 N10        -5.4610   -1.3430   -2.0190 n         1 MOL     -0.485485
    110 C35        -6.8240   -0.7850   -1.8510 c3        1 MOL      0.002461
    111 C36        -6.7830    0.6740   -1.4130 c         1 MOL      0.686515
    112 O17        -7.7370    1.4240   -1.6710 o         1 MOL     -0.578536
    113 C37        -7.6470   -1.5640   -0.8530 c3        1 MOL     -0.303310
    114 C38        -7.8620   -3.0130   -1.3370 c         1 MOL      0.615110
    115 N11        -8.2820   -3.2630   -2.5490 n         1 MOL     -0.729947
    116 O18        -7.6240   -4.0400   -0.6390 o         1 MOL     -0.571787
    117 H50        -4.8660   -1.6390   -1.2510 hn        1 MOL      0.227316
    118 H51        -7.3070   -0.7090   -2.8270 h1        1 MOL      0.081030
    119 H52        -8.5680   -1.0050   -0.6770 hc        1 MOL      0.125893
    120 H53        -7.1200   -1.6520    0.0940 hc        1 MOL      0.125893
    121 H54        -8.5940   -2.5130   -3.1400 hn        1 MOL      0.375326
    122 H55        -8.2880   -4.2410   -2.8080 hn        1 MOL      0.375326
    123 N12        -5.7110    1.0110   -0.6310 n         1 MOL     -0.548379
    124 C39        -5.7500    2.1930    0.1920 c3        1 MOL      0.078563
    125 C40        -4.3790    2.9290    0.3540 c         1 MOL      0.496870
    126 O19        -3.3490    2.2990    0.1150 o         1 MOL     -0.521059
    127 C41        -6.1850    1.7740    1.5850 c3        1 MOL     -0.069807
    128 C42        -7.5960    1.2510    1.6740 ca        1 MOL     -0.010926
    129 C43        -8.7400    2.1010    1.5670 ca        1 MOL     -0.073879
    130 C44        -7.8620   -0.0410    2.1890 ca        1 MOL     -0.073879
    131 C45       -10.0480    1.6370    1.8020 ca        1 MOL     -0.300703
    132 C46        -9.1610   -0.4660    2.4340 ca        1 MOL     -0.300703
    133 C47       -10.2580    0.3350    2.1950 ca        1 MOL      0.371466
    134 O20       -11.5200   -0.1240    2.4110 oh        1 MOL     -0.520649
    135 H56        -4.9930    0.3480   -0.3990 hn        1 MOL      0.307969
    136 H57        -6.3640    3.0040   -0.2120 h1        1 MOL      0.071394
    137 H58        -6.0980    2.6060    2.2920 hc        1 MOL      0.083241
    138 H59        -5.5750    1.0610    2.1470 hc        1 MOL      0.083241
    139 H60        -8.5840    3.1450    1.3280 ha        1 MOL      0.097572
    140 H61        -7.0200   -0.6970    2.3390 ha        1 MOL      0.097572
    141 H62       -10.9060    2.2680    1.6160 ha        1 MOL      0.141339
    142 H63        -9.3810   -1.4720    2.7640 ha        1 MOL      0.141339
    143 H64       -12.1930    0.5670    2.3490 ho        1 MOL      0.369484
    144 N13        -4.3820    4.2060    0.6930 n         1 MOL     -0.578444
    145 C48        -3.1550    5.0800    0.9900 c3        1 MOL      0.208449
    146 C49        -2.1190    5.3040   -0.1230 c         1 MOL      0.357864
    147 O21        -1.5210    6.4040   -0.2640 o         1 MOL     -0.500241
    148 C50        -2.5470    4.5820    2.3020 c3        1 MOL      0.170089
    149 C51        -3.3980    4.3080    3.5780 c3        1 MOL     -0.302100
    150 C52        -2.7410    4.5590    4.9060 c         1 MOL      0.781457
    151 O22        -3.4380    4.5620    5.8850 o         1 MOL     -0.732593
    152 O23        -1.5360    4.8950    4.9550 o         1 MOL     -0.732593
    153 H65        -5.2640    4.6720    0.8650 hn        1 MOL      0.314278
    154 H66        -3.4280    6.1120    1.1430 h1        1 MOL      0.001302
    155 H67        -1.7440    5.2740    2.5830 hc        1 MOL      0.027277
    156 H68        -2.0900    3.6070    2.1310 hc        1 MOL      0.027277
    157 H69        -3.7680    3.2760    3.5410 hc        1 MOL      0.005515
    158 H70        -4.2660    4.9590    3.5490 hc        1 MOL      0.005515
    159 N14        -1.7930    4.2580   -0.9250 n         1 MOL     -0.459794
    160 C53        -0.7410    4.3810   -1.9580 c3        1 MOL     -0.104710
    161 C54        -1.1370    4.9710   -3.3200 c         1 MOL      0.603878
    162 O24        -0.2790    5.1970   -4.1640 o         1 MOL     -0.562481
    163 C55         0.0070    3.0160   -2.0400 c3        1 MOL     -0.165284
    164 C56         0.3530    2.3720   -0.7370 c3        1 MOL      0.338800
    165 C57         1.5080    3.0510   -0.1030 c         1 MOL      0.575618
    166 O25         1.4960    4.1810    0.4070 o         1 MOL     -0.634036
    167 O26         2.5480    2.3920    0.0740 o         1 MOL     -0.634036
    168 H71        -2.2640    3.3860   -0.7250 hn        1 MOL      0.291648
    169 H72         0.0450    5.0500   -1.6100 h1        1 MOL      0.149492
    170 H73         0.9250    3.2240   -2.5850 hc        1 MOL      0.035511
    171 H74        -0.5980    2.3640   -2.6730 hc        1 MOL      0.035511
    172 H75         0.6140    1.3550   -1.0440 hc        1 MOL     -0.103611
    173 H76        -0.4050    2.2460    0.0260 hc        1 MOL     -0.103611
    174 N15        -2.4160    5.2730   -3.5220 n         1 MOL     -0.368488
    175 C58        -2.8550    6.1740   -4.6030 c3        1 MOL     -0.183508
    176 H77        -2.2120    7.0520   -4.6270 h1        1 MOL      0.088320
    177 H78        -2.7940    5.6530   -5.5590 h1        1 MOL      0.088320
    178 H79        -3.8850    6.4840   -4.4230 h1        1 MOL      0.088320
    179 H80        -3.1100    5.2210   -2.7850 hn        1 MOL      0.276791
    180 Ca1         4.9760    1.9810    1.0850 Ca        1 MOL      1.826579
    181 O27         6.3590    0.4060    2.7970 oh        1 MOL     -0.863871
    182 H81         6.4230   -0.2850    3.4590 ho        1 MOL      0.402968
    183 H82         7.1560    0.9190    2.9030 ho        1 MOL      0.402968
    184 O28         4.2320    4.5460    0.7320 oh        1 MOL     -0.863871
    185 H83         3.2950    4.6260    0.5500 ho        1 MOL      0.402968
    186 H84         4.6320    5.2220    0.1900 ho        1 MOL      0.402968
    187 O29         5.6420    3.0760    3.4590 oh        1 MOL     -0.863871
    188 H85         6.3460    3.4860    3.9680 ho        1 MOL      0.402968
    189 H86         5.1290    2.5900    4.1160 ho        1 MOL      0.402968
@<TRIPOS>BOND
     1    1    2 1   
     2    1    4 1   
     3    1    5 1   
     4    1    6 1   
     5    2    3 2   
     6    2    7 1   
     7    7    8 1   
     8    7   15 1   
     9    8    9 1   
    10    8   11 1   
    11    8   16 1   
    12    9   10 2   
    13    9   19 1   
    14   11   12 1   
    15   11   17 1   
    16   11   18 1   
    17   12   13 1   
    18   12   14 1   
    19   19   20 1   
    20   19   27 1   
    21   20   21 1   
    22   20   23 1   
    23   20   28 1   
    24   21   22 2   
    25   21   38 1   
    26   23   24 1   
    27   23   25 1   
    28   23   29 1   
    29   24   26 1   
    30   24   30 1   
    31   24   31 1   
    32   25   32 1   
    33   25   33 1   
    34   25   34 1   
    35   26   35 1   
    36   26   36 1   
    37   26   37 1   
    38   38   39 1   
    39   38   46 1   
    40   39   40 1   
    41   39   42 1   
    42   39   47 1   
    43   40   41 2   
    44   40   50 1   
    45   42   43 1   
    46   42   48 1   
    47   42   49 1   
    48   43   44 1   
    49   43   45 1   
    50   50   51 1   
    51   50   54 1   
    52   51   52 1   
    53   51   55 1   
    54   51   56 1   
    55   52   53 2   
    56   52   57 1   
    57   57   58 1   
    58   57   65 1   
    59   58   59 1   
    60   58   61 1   
    61   58   66 1   
    62   59   60 2   
    63   59   69 1   
    64   61   62 1   
    65   61   67 1   
    66   61   68 1   
    67   62   63 1   
    68   62   64 1   
    69   69   70 1   
    70   69   73 1   
    71   70   71 1   
    72   70   74 1   
    73   70   75 1   
    74   71   72 2   
    75   71   76 1   
    76   76   77 1   
    77   76   85 1   
    78   77   78 1   
    79   77   80 1   
    80   77   86 1   
    81   78   79 2   
    82   78   93 1   
    83   80   81 1   
    84   80   87 1   
    85   80   88 1   
    86   81   82 1   
    87   81   89 1   
    88   81   90 1   
    89   82   83 1   
    90   82   84 2   
    91   83   91 1   
    92   83   92 1   
    93   93   94 1   
    94   93  100 1   
    95   94   95 1   
    96   94   97 1   
    97   94  101 1   
    98   95   96 2   
    99   95  109 1   
   100   97   98 1   
   101   97   99 1   
   102   97  102 1   
   103   98  103 1   
   104   98  104 1   
   105   98  105 1   
   106   99  106 1   
   107   99  107 1   
   108   99  108 1   
   109  109  110 1   
   110  109  117 1   
   111  110  111 1   
   112  110  113 1   
   113  110  118 1   
   114  111  112 2   
   115  111  123 1   
   116  113  114 1   
   117  113  119 1   
   118  113  120 1   
   119  114  115 1   
   120  114  116 2   
   121  115  121 1   
   122  115  122 1   
   123  123  124 1   
   124  123  135 1   
   125  124  125 1   
   126  124  127 1   
   127  124  136 1   
   128  125  126 2   
   129  125  144 1   
   130  127  128 1   
   131  127  137 1   
   132  127  138 1   
   133  128  129 ar  
   134  128  130 ar  
   135  129  131 ar  
   136  129  139 1   
   137  130  132 ar  
   138  130  140 1   
   139  131  133 ar  
   140  131  141 1   
   141  132  133 ar  
   142  132  142 1   
   143  133  134 1   
   144  134  143 1   
   145  144  145 1   
   146  144  153 1   
   147  145  146 1   
   148  145  148 1   
   149  145  154 1   
   150  146  147 2   
   151  146  159 1   
   152  148  149 1   
   153  148  155 1   
   154  148  156 1   
   155  149  150 1   
   156  149  157 1   
   157  149  158 1   
   158  150  151 1   
   159  150  152 1   
   160  159  160 1   
   161  159  168 1   
   162  160  161 1   
   163  160  163 1   
   164  160  169 1   
   165  161  162 2   
   166  161  174 1   
   167  163  164 1   
   168  163  170 1   
   169  163  171 1   
   170  164  165 1   
   171  164  172 1   
   172  164  173 1   
   173  165  166 1   
   174  165  167 1   
   175  174  175 1   
   176  174  179 1   
   177  175  176 1   
   178  175  177 1   
   179  175  178 1   
   180  181  182 1   
   181  181  183 1   
   182  184  185 1   
   183  184  186 1   
   184  187  188 1   
   185  187  189 1   
@<TRIPOS>SUBSTRUCTURE
     1 MOL         1 TEMP              0 ****  ****    0 ROOT
