@<TRIPOS>MOLECULE
MOL
  185   180     1     0     0
SMALL
resp


@<TRIPOS>ATOM
      1 C1         -6.1040    1.1470   -3.5520 c3        1 MOL     -0.402689
      2 C2         -6.6030    1.2850   -2.0620 c         1 MOL      0.598846
      3 O1         -5.8900    0.9580   -1.1000 o         1 MOL     -0.454696
      4 H1         -5.0350    0.9300   -3.5570 hc        1 MOL      0.110732
      5 H2         -6.6410    0.3360   -4.0420 hc        1 MOL      0.110732
      6 H3         -6.2870    2.0800   -4.0850 hc        1 MOL      0.110732
      7 N1         -7.8510    1.6780   -1.7760 n         1 MOL     -0.506957
      8 C3         -8.5640    1.5400   -0.4910 c3        1 MOL     -0.099770
      9 C4         -8.4520    0.1840    0.2990 c         1 MOL      0.540756
     10 O2         -8.9920    0.0400    1.4100 o         1 MOL     -0.544224
     11 C5         -8.2910    2.7750    0.4380 c3        1 MOL     -0.095831
     12 C6         -8.2970    4.1240   -0.2700 c         1 MOL      0.681892
     13 O3         -7.3970    4.9840   -0.0030 o         1 MOL     -0.658744
     14 O4         -9.2400    4.3690   -1.0530 o         1 MOL     -0.658744
     15 H4         -8.4650    1.9060   -2.5380 hn        1 MOL      0.327435
     16 H5         -9.5840    1.6270   -0.8710 h1        1 MOL      0.094797
     17 H6         -7.3450    2.6160    0.9520 hc        1 MOL      0.053982
     18 H7         -9.0130    2.8310    1.2490 hc        1 MOL      0.053982
     19 N2         -7.8970   -0.8820   -0.2880 n         1 MOL     -0.323164
     20 C7         -7.6350   -2.2190    0.2570 c3        1 MOL      0.130669
     21 C8         -6.1440   -2.5890    0.6450 c         1 MOL      0.575674
     22 O5         -5.8340   -3.6510    1.2180 o         1 MOL     -0.586182
     23 C9         -8.2360   -3.3120   -0.7310 c3        1 MOL     -0.293904
     24 C10        -9.7150   -3.5750   -0.4990 c3        1 MOL      0.219229
     25 C11       -10.2640   -4.5460   -1.6540 c3        1 MOL     -0.095599
     26 C12       -11.7210   -4.8170   -1.5270 c3        1 MOL     -0.020010
     27 N3        -12.1260   -5.6730   -0.4270 n4        1 MOL     -0.324398
     28 H8         -7.6060   -0.7300   -1.2410 hn        1 MOL      0.204835
     29 H9         -8.1440   -2.3350    1.2170 h1        1 MOL      0.074986
     30 H10        -7.6680   -4.2370   -0.6650 hc        1 MOL      0.071508
     31 H11        -8.2650   -2.9450   -1.7610 hc        1 MOL      0.071508
     32 H12       -10.1800   -2.6040   -0.6200 hc        1 MOL     -0.033696
     33 H13        -9.9080   -4.0220    0.4760 hc        1 MOL     -0.033696
     34 H14        -9.6700   -5.4430   -1.5320 hc        1 MOL      0.062474
     35 H15       -10.0620   -4.1080   -2.6360 hc        1 MOL      0.062474
     36 H16       -12.1300   -5.2710   -2.4320 hx        1 MOL      0.098348
     37 H17       -12.2400   -3.8610   -1.4410 hx        1 MOL      0.098348
     38 H18       -12.0830   -5.1960    0.4590 hn        1 MOL      0.313762
     39 H19       -13.0830   -5.9990   -0.4280 hn        1 MOL      0.313762
     40 H20       -11.5160   -6.4780   -0.3940 hn        1 MOL      0.313762
     41 N4         -5.1830   -1.6550    0.4190 n         1 MOL     -0.497888
     42 C13        -3.7090   -1.8530    0.4660 c3        1 MOL     -0.008056
     43 C14        -3.2090   -1.9250    1.9040 c         1 MOL      0.788086
     44 O6         -3.4550   -0.9910    2.6420 o         1 MOL     -0.573073
     45 C15        -3.1450   -0.6610   -0.2720 c3        1 MOL     -0.184936
     46 C16        -1.6320   -0.7420   -0.4580 c         1 MOL      0.861093
     47 O7         -1.2680   -1.2340   -1.5640 o         1 MOL     -0.824607
     48 O8         -0.8340   -0.5830    0.4800 o         1 MOL     -0.824607
     49 H21        -5.4670   -0.8210   -0.0750 hn        1 MOL      0.238808
     50 H22        -3.4630   -2.7790   -0.0420 h1        1 MOL      0.061840
     51 H23        -3.4420    0.2960    0.1620 hc        1 MOL      0.091138
     52 H24        -3.5540   -0.6210   -1.2740 hc        1 MOL      0.091138
     53 N5         -2.4190   -3.0110    2.2140 n         1 MOL     -0.527403
     54 C17        -1.9620   -3.3250    3.6070 c3        1 MOL     -0.094811
     55 C18        -1.0600   -2.3860    4.3190 c         1 MOL      0.602650
     56 O9         -0.6850   -2.6460    5.4720 o         1 MOL     -0.567623
     57 H25        -2.1160   -3.6240    1.4610 hn        1 MOL      0.305430
     58 H26        -1.4670   -4.2980    3.6670 h1        1 MOL      0.090828
     59 H27        -2.8720   -3.3290    4.1970 h1        1 MOL      0.090828
     60 N6         -0.6660   -1.2500    3.6630 n         1 MOL     -0.521540
     61 C19         0.0350   -0.1980    4.3430 c3        1 MOL      0.104962
     62 C20        -0.3960    1.2010    3.9070 c         1 MOL      0.294570
     63 O10         0.3140    2.1930    4.2730 o         1 MOL     -0.522794
     64 C21         1.5220   -0.5290    4.2130 c3        1 MOL     -0.448935
     65 C22         2.0380   -0.3660    2.7650 c         1 MOL      0.821994
     66 N7          2.9120    0.6040    2.5820 n         1 MOL     -0.784949
     67 O11         1.6720   -1.1300    1.8750 o         1 MOL     -0.781394
     68 H28        -1.0290   -1.1710    2.7280 hn        1 MOL      0.475615
     69 H29        -0.2140   -0.2450    5.4050 h1        1 MOL      0.132999
     70 H30         1.6010   -1.6050    4.3570 hc        1 MOL      0.153329
     71 H31         2.0750    0.0350    4.9660 hc        1 MOL      0.153329
     72 H32         3.2490    1.1100    3.3910 hn        1 MOL      0.348751
     73 H33         3.2490    0.8890    1.6710 hn        1 MOL      0.348751
     74 N8         -1.4270    1.4180    3.1040 n         1 MOL      0.004048
     75 C23        -1.8740    2.7700    2.7180 c3        1 MOL     -0.354349
     76 C24        -1.1870    3.3140    1.4950 c         1 MOL      0.522805
     77 O12        -1.5350    4.4540    1.2190 o         1 MOL     -0.453740
     78 H34        -1.9140    0.5990    2.7670 hn        1 MOL      0.037290
     79 H35        -1.7370    3.4310    3.5700 h1        1 MOL      0.175733
     80 H36        -2.9410    2.7170    2.4760 h1        1 MOL      0.175733
     81 N9         -0.4640    2.5200    0.6770 n         1 MOL     -0.470516
     82 C25         0.1180    2.8870   -0.6060 c3        1 MOL      0.066861
     83 C26         1.2570    1.9270   -0.9010 c         1 MOL      0.599006
     84 O13         1.2590    0.7440   -0.5690 o         1 MOL     -0.565577
     85 C27        -0.9480    2.9280   -1.7260 c3        1 MOL      0.085147
     86 C28        -2.1100    3.9010   -1.4900 ca        1 MOL      0.013623
     87 C29        -2.0610    5.2640   -1.8460 ca        1 MOL     -0.260672
     88 C30        -3.3070    3.3770   -0.9600 ca        1 MOL     -0.260672
     89 C31        -3.1140    6.1260   -1.5950 ca        1 MOL     -0.128708
     90 C32        -4.3790    4.2500   -0.7310 ca        1 MOL     -0.128708
     91 C33        -4.3040    5.6130   -1.0700 ca        1 MOL      0.294731
     92 O14        -5.4490    6.3130   -0.8110 oh        1 MOL     -0.517535
     93 H37        -0.3500    1.5400    0.9210 hn        1 MOL      0.357354
     94 H38         0.5510    3.8660   -0.4160 h1        1 MOL      0.055340
     95 H39        -1.3110    1.9470   -2.0230 hc        1 MOL     -0.024860
     96 H40        -0.4700    3.3360   -2.6080 hc        1 MOL     -0.024860
     97 H41        -1.1660    5.6860   -2.2920 ha        1 MOL      0.120826
     98 H42        -3.4030    2.3220   -0.8050 ha        1 MOL      0.120826
     99 H43        -3.0960    7.1890   -1.8150 ha        1 MOL      0.108695
    100 H44        -5.3030    3.7700   -0.4660 ha        1 MOL      0.108695
    101 H45        -6.1120    5.6450   -0.6010 ho        1 MOL      0.388094
    102 N10         2.2690    2.5340   -1.5640 n         1 MOL     -0.601863
    103 C34         3.6050    1.9800   -1.8570 c3        1 MOL      0.035529
    104 C35         4.4220    2.0990   -0.5770 c         1 MOL      0.364111
    105 O15         4.6620    1.1100    0.1030 o         1 MOL     -0.431882
    106 C36         4.3980    2.6590   -2.9970 c3        1 MOL     -0.080445
    107 C37         3.5520    2.8130   -4.3150 c3        1 MOL      0.176705
    108 C38         5.6850    1.8670   -3.2920 c3        1 MOL     -0.163773
    109 C39         2.8740    1.6500   -4.9760 c3        1 MOL     -0.545671
    110 H46         2.0720    3.5020   -1.7690 hn        1 MOL      0.303988
    111 H47         3.5030    0.9320   -2.1180 h1        1 MOL      0.134560
    112 H48         4.7100    3.6670   -2.7240 hc        1 MOL      0.017770
    113 H49         4.0980    3.3130   -5.1220 hc        1 MOL      0.011813
    114 H50         2.8430    3.6180   -4.1310 hc        1 MOL      0.011813
    115 H51         5.6460    0.7810   -3.2840 hc        1 MOL      0.051642
    116 H52         6.1960    2.2380   -4.1740 hc        1 MOL      0.051642
    117 H53         6.4150    2.1570   -2.5400 hc        1 MOL      0.051642
    118 H54         2.1640    1.1660   -4.3070 hc        1 MOL      0.150024
    119 H55         2.4560    2.1430   -5.8510 hc        1 MOL      0.150024
    120 H56         3.6930    0.9410   -5.0800 hc        1 MOL      0.150024
    121 N11         4.7770    3.3160   -0.1200 n         1 MOL     -0.206772
    122 C40         5.3750    3.5910    1.1800 c3        1 MOL     -0.159947
    123 C41         6.7610    2.9680    1.3440 c         1 MOL      0.254370
    124 O16         6.9010    2.4810    2.4890 o         1 MOL     -0.431205
    125 C42         5.4990    5.0150    1.4400 c3        1 MOL      0.220868
    126 O17         4.2910    5.6790    1.2520 oh        1 MOL     -0.594109
    127 H57         4.4260    4.1670   -0.5480 hn        1 MOL      0.236953
    128 H58         4.6390    3.1540    1.8580 h1        1 MOL      0.155295
    129 H59         6.2030    5.4130    0.7120 h1        1 MOL      0.055749
    130 H60         5.8150    5.1430    2.4780 h1        1 MOL      0.055749
    131 H61         3.5650    5.2150    1.6920 ho        1 MOL      0.403015
    132 N12         7.6640    2.7620    0.4020 n         1 MOL     -0.236010
    133 C43         8.8890    2.0640    0.4240 c3        1 MOL      0.412632
    134 C44         8.7780    0.6440    1.0960 c         1 MOL      0.299930
    135 O18         9.5180    0.3680    2.0890 o         1 MOL     -0.478008
    136 C45        10.0150    2.8920    0.9710 c3        1 MOL     -0.369792
    137 H62         7.6240    3.3880   -0.3880 hn        1 MOL      0.209956
    138 H63         9.1140    1.8240   -0.6210 h1        1 MOL     -0.031825
    139 H64        10.9510    2.3390    0.8400 hc        1 MOL      0.092076
    140 H65         9.9780    3.7330    0.2690 hc        1 MOL      0.092076
    141 H66         9.7250    3.1790    1.9780 hc        1 MOL      0.092076
    142 N13         7.8860   -0.1690    0.5560 n         1 MOL     -0.306478
    143 C46         7.5290   -1.4880    1.0540 c3        1 MOL      0.203087
    144 C47         6.9180   -2.3700   -0.1410 c         1 MOL      0.412579
    145 O19         6.2540   -1.7240   -1.0000 o         1 MOL     -0.460705
    146 C48         6.5810   -1.3260    2.2080 c3        1 MOL     -0.440739
    147 H67         7.2500    0.1530   -0.1620 hn        1 MOL      0.150849
    148 H68         8.4790   -1.9390    1.3580 h1        1 MOL      0.027619
    149 H69         7.0880   -0.8030    3.0240 hc        1 MOL      0.146475
    150 H70         5.7540   -0.6650    1.9630 hc        1 MOL      0.146475
    151 H71         6.1840   -2.2880    2.5250 hc        1 MOL      0.146475
    152 N14         7.2440   -3.6790   -0.2440 n         1 MOL     -0.489166
    153 C49         6.7270   -4.6600   -1.2460 c3        1 MOL     -0.203259
    154 C50         7.1170   -4.4440   -2.7600 c         1 MOL      0.471714
    155 O20         6.4090   -5.0190   -3.5830 o         1 MOL     -0.507991
    156 C51         5.2080   -4.8340   -1.0450 c3        1 MOL      0.453639
    157 C52         4.5910   -5.0480    0.3930 c3        1 MOL     -0.296124
    158 C53         3.0190   -4.9680    0.3080 c         1 MOL      0.707916
    159 O21         2.3750   -5.9960    0.2960 o         1 MOL     -0.669855
    160 O22         2.5250   -3.8420    0.2360 o         1 MOL     -0.669855
    161 H72         7.8330   -4.0480    0.4850 hn        1 MOL      0.340721
    162 H73         7.1320   -5.6250   -0.9380 h1        1 MOL      0.118760
    163 H74         4.9310   -5.6620   -1.6880 hc        1 MOL     -0.071972
    164 H75         4.5820   -4.0180   -1.4230 hc        1 MOL     -0.071972
    165 H76         4.9300   -4.3010    1.1130 hc        1 MOL      0.023484
    166 H77         4.8510   -6.0590    0.7010 hc        1 MOL      0.023484
    167 N15         8.0240   -3.5520   -3.0330 n         1 MOL     -0.295659
    168 C54         8.3500   -3.0890   -4.4560 c3        1 MOL     -0.060768
    169 H78         9.2670   -3.5710   -4.7940 h1        1 MOL      0.075349
    170 H79         7.5310   -3.3590   -5.1240 h1        1 MOL      0.075349
    171 H80         8.4840   -2.0070   -4.4650 h1        1 MOL      0.075349
    172 H81         8.3460   -3.0380   -2.2250 hn        1 MOL      0.236175
    173 Ca1         1.1650   -1.9450   -0.6610 Ca        1 MOL      1.783497
    174 O23         3.6520   -1.2490   -0.9960 oh        1 MOL     -0.862935
    175 H82         3.8070   -0.4510   -0.4990 ho        1 MOL      0.420688
    176 H83         4.5080   -1.6660   -1.0500 ho        1 MOL      0.420688
    177 O24         0.6410   -3.6890   -2.6830 oh        1 MOL     -0.862935
    178 H84         0.3320   -3.0280   -3.2990 ho        1 MOL      0.420688
    179 H85         0.3900   -4.5190   -3.0660 ho        1 MOL      0.420688
    180 O25         0.7640   -0.8360   -3.1220 oh        1 MOL     -0.862935
    181 H86         0.9590   -0.1940   -3.8040 ho        1 MOL      0.420688
    182 H87        -0.1860   -0.8260   -3.0360 ho        1 MOL      0.420688
    183 O26        -0.5200   -4.0150    0.2770 oh        1 MOL     -0.862935
    184 H88         0.1330   -4.3270    0.9050 ho        1 MOL      0.420688
    185 H89        -1.0070   -4.8020    0.0300 ho        1 MOL      0.420688
@<TRIPOS>BOND
     1    1    2 1   
     2    1    4 1   
     3    1    5 1   
     4    1    6 1   
     5    2    3 2   
     6    2    7 1   
     7    7    8 1   
     8    7   15 1   
     9    8    9 1   
    10    8   11 1   
    11    8   16 1   
    12    9   10 2   
    13    9   19 1   
    14   11   12 1   
    15   11   17 1   
    16   11   18 1   
    17   12   13 1   
    18   12   14 1   
    19   19   20 1   
    20   19   28 1   
    21   20   21 1   
    22   20   23 1   
    23   20   29 1   
    24   21   22 2   
    25   21   41 1   
    26   23   24 1   
    27   23   30 1   
    28   23   31 1   
    29   24   25 1   
    30   24   32 1   
    31   24   33 1   
    32   25   26 1   
    33   25   34 1   
    34   25   35 1   
    35   26   27 1   
    36   26   36 1   
    37   26   37 1   
    38   27   38 1   
    39   27   39 1   
    40   27   40 1   
    41   41   42 1   
    42   41   49 1   
    43   42   43 1   
    44   42   45 1   
    45   42   50 1   
    46   43   44 2   
    47   43   53 1   
    48   45   46 1   
    49   45   51 1   
    50   45   52 1   
    51   46   47 1   
    52   46   48 1   
    53   53   54 1   
    54   53   57 1   
    55   54   55 1   
    56   54   58 1   
    57   54   59 1   
    58   55   56 2   
    59   55   60 1   
    60   60   61 1   
    61   60   68 1   
    62   61   62 1   
    63   61   64 1   
    64   61   69 1   
    65   62   63 2   
    66   62   74 1   
    67   64   65 1   
    68   64   70 1   
    69   64   71 1   
    70   65   66 1   
    71   65   67 2   
    72   66   72 1   
    73   66   73 1   
    74   74   75 1   
    75   74   78 1   
    76   75   76 1   
    77   75   79 1   
    78   75   80 1   
    79   76   77 2   
    80   76   81 1   
    81   81   82 1   
    82   81   93 1   
    83   82   83 1   
    84   82   85 1   
    85   82   94 1   
    86   83   84 2   
    87   83  102 1   
    88   85   86 1   
    89   85   95 1   
    90   85   96 1   
    91   86   87 ar  
    92   86   88 ar  
    93   87   89 ar  
    94   87   97 1   
    95   88   90 ar  
    96   88   98 1   
    97   89   91 ar  
    98   89   99 1   
    99   90   91 ar  
   100   90  100 1   
   101   91   92 1   
   102   92  101 1   
   103  102  103 1   
   104  102  110 1   
   105  103  104 1   
   106  103  106 1   
   107  103  111 1   
   108  104  105 2   
   109  104  121 1   
   110  106  107 1   
   111  106  108 1   
   112  106  112 1   
   113  107  109 1   
   114  107  113 1   
   115  107  114 1   
   116  108  115 1   
   117  108  116 1   
   118  108  117 1   
   119  109  118 1   
   120  109  119 1   
   121  109  120 1   
   122  121  122 1   
   123  121  127 1   
   124  122  123 1   
   125  122  125 1   
   126  122  128 1   
   127  123  124 2   
   128  123  132 1   
   129  125  126 1   
   130  125  129 1   
   131  125  130 1   
   132  126  131 1   
   133  132  133 1   
   134  132  137 1   
   135  133  134 1   
   136  133  136 1   
   137  133  138 1   
   138  134  135 2   
   139  134  142 1   
   140  136  139 1   
   141  136  140 1   
   142  136  141 1   
   143  142  143 1   
   144  142  147 1   
   145  143  144 1   
   146  143  146 1   
   147  143  148 1   
   148  144  145 2   
   149  144  152 1   
   150  146  149 1   
   151  146  150 1   
   152  146  151 1   
   153  152  153 1   
   154  152  161 1   
   155  153  154 1   
   156  153  156 1   
   157  153  162 1   
   158  154  155 2   
   159  154  167 1   
   160  156  157 1   
   161  156  163 1   
   162  156  164 1   
   163  157  158 1   
   164  157  165 1   
   165  157  166 1   
   166  158  159 1   
   167  158  160 1   
   168  167  168 1   
   169  167  172 1   
   170  168  169 1   
   171  168  170 1   
   172  168  171 1   
   173  174  175 1   
   174  174  176 1   
   175  177  178 1   
   176  177  179 1   
   177  180  181 1   
   178  180  182 1   
   179  183  184 1   
   180  183  185 1   
@<TRIPOS>SUBSTRUCTURE
     1 MOL         1 TEMP              0 ****  ****    0 ROOT
