@<TRIPOS>MOLECULE
MOL
  198   191     1     0     0
SMALL
resp


@<TRIPOS>ATOM
      1 C1         -9.9640   -3.6540   -3.1380 c3        1 MOL     -0.563541
      2 C2         -8.7650   -3.0400   -2.4620 c         1 MOL      0.718414
      3 O1         -7.6350   -3.0190   -2.9600 o         1 MOL     -0.653197
      4 H1        -10.8540   -3.4680   -2.5360 hc        1 MOL      0.148663
      5 H2        -10.0940   -3.2080   -4.1240 hc        1 MOL      0.148663
      6 H3         -9.8120   -4.7280   -3.2410 hc        1 MOL      0.148663
      7 N1         -8.9700   -2.5000   -1.2930 n         1 MOL     -0.390116
      8 C3         -7.9040   -1.9050   -0.4400 c3        1 MOL      0.019519
      9 C4         -7.2450   -2.9150    0.4910 c         1 MOL      0.362879
     10 O2         -7.8720   -3.4440    1.4230 o         1 MOL     -0.456942
     11 C5         -8.3460   -0.6510    0.3310 c3        1 MOL     -0.241368
     12 C6         -9.5480   -0.8380    1.2400 c         1 MOL      0.743666
     13 O3         -9.4260   -0.5470    2.4500 o         1 MOL     -0.621630
     14 O4        -10.6450   -0.9560    0.7340 o         1 MOL     -0.621630
     15 H4         -9.9130   -2.6380   -0.9600 hn        1 MOL      0.235525
     16 H5         -7.1030   -1.4670   -1.0300 h1        1 MOL      0.065151
     17 H6         -8.6690    0.0640   -0.4220 hc        1 MOL      0.083876
     18 H7         -7.5450   -0.2330    0.9430 hc        1 MOL      0.083876
     19 N2         -5.9390   -3.0650    0.2040 n         1 MOL     -0.163780
     20 C7         -5.0130   -3.9850    0.8790 c3        1 MOL      0.087437
     21 C8         -4.2650   -3.4370    2.0850 c         1 MOL      0.543978
     22 O5         -4.1160   -4.0370    3.1000 o         1 MOL     -0.545282
     23 C9         -4.0800   -4.6710   -0.1740 c3        1 MOL     -0.176077
     24 C10        -4.7990   -5.4530   -1.3540 c3        1 MOL      0.012312
     25 C11        -5.3920   -6.7910   -1.0590 c3        1 MOL     -0.062285
     26 C12        -4.2750   -7.7490   -0.9540 c3        1 MOL      0.152829
     27 N3         -4.7290   -9.0570   -0.4270 n4        1 MOL     -0.393747
     28 H8         -5.6450   -2.6160   -0.6500 hn        1 MOL      0.190009
     29 H9         -5.6580   -4.7770    1.2730 h1        1 MOL      0.023641
     30 H10        -3.2330   -5.2370    0.2010 hc        1 MOL      0.064406
     31 H11        -3.4240   -3.9090   -0.5950 hc        1 MOL      0.064406
     32 H12        -4.1570   -5.4970   -2.2340 hc        1 MOL      0.022004
     33 H13        -5.6530   -4.8490   -1.6730 hc        1 MOL      0.022004
     34 H14        -6.1000   -6.9860   -1.8550 hc        1 MOL      0.049605
     35 H15        -5.8740   -6.7390   -0.0810 hc        1 MOL      0.049605
     36 H16        -3.5580   -7.3440   -0.2420 hx        1 MOL      0.047745
     37 H17        -3.7550   -7.8130   -1.9020 hx        1 MOL      0.047745
     38 H18        -3.9520   -9.5970   -0.0700 hn        1 MOL      0.295316
     39 H19        -5.1830   -8.9930    0.4700 hn        1 MOL      0.295316
     40 H20        -5.3400   -9.6660   -0.9680 hn        1 MOL      0.295316
     41 N4         -3.8030   -2.1610    2.0980 n         1 MOL     -0.421878
     42 C13        -3.4370   -1.2560    1.0390 c3        1 MOL     -0.017226
     43 C14        -3.9380    0.1850    1.2730 c         1 MOL      0.335616
     44 O6         -4.1480    0.5630    2.4240 o         1 MOL     -0.408328
     45 C15        -1.9930   -1.3940    0.6310 c3        1 MOL      0.167473
     46 C16        -0.9190   -1.4050    1.7980 c         1 MOL      0.643078
     47 O7         -0.3750   -0.3060    1.9740 o         1 MOL     -0.712214
     48 O8         -0.5100   -2.4590    2.3510 o         1 MOL     -0.712214
     49 H21        -3.4400   -1.9250    3.0170 hn        1 MOL      0.345110
     50 H22        -3.9900   -1.5580    0.1560 h1        1 MOL     -0.028340
     51 H23        -1.7720   -0.5850   -0.0650 hc        1 MOL     -0.064988
     52 H24        -1.9810   -2.3950    0.2170 hc        1 MOL     -0.064988
     53 N5         -4.2400    0.8060    0.1630 n         1 MOL     -0.309875
     54 C17        -4.9390    2.1240    0.1900 c3        1 MOL     -0.324282
     55 C18        -3.9480    3.2280    0.2810 c         1 MOL      0.638627
     56 O9         -2.8340    3.2960   -0.2450 o         1 MOL     -0.496189
     57 H25        -4.1390    0.3120   -0.7090 hn        1 MOL      0.306793
     58 H26        -5.6260    2.2640    1.0290 h1        1 MOL      0.153642
     59 H27        -5.4680    2.2640   -0.7440 h1        1 MOL      0.153642
     60 N6         -4.3060    4.2900    0.9410 n         1 MOL     -0.408428
     61 C19        -3.5540    5.4960    1.2580 c3        1 MOL      0.102899
     62 C20        -3.8430    6.6900    0.2560 c         1 MOL      0.485157
     63 O10        -5.0290    6.9910    0.0820 o         1 MOL     -0.528464
     64 C21        -3.8040    5.9180    2.6900 c3        1 MOL     -0.113549
     65 C22        -3.5580    4.7700    3.6300 c         1 MOL      0.618221
     66 O11        -2.3900    4.3670    3.6080 o         1 MOL     -0.655013
     67 O12        -4.4830    4.3510    4.4010 o         1 MOL     -0.655013
     68 H28        -5.2520    4.3180    1.2730 hn        1 MOL      0.289940
     69 H29        -2.4770    5.3940    1.1960 h1        1 MOL     -0.041311
     70 H30        -4.8060    6.3340    2.8380 hc        1 MOL      0.036690
     71 H31        -3.2180    6.7980    2.9140 hc        1 MOL      0.036690
     72 N7         -2.9030    7.5600   -0.2190 n         1 MOL     -0.462211
     73 C23        -1.4860    7.3570   -0.2020 c3        1 MOL      0.031769
     74 C24        -0.9470    6.2680   -1.2020 c         1 MOL      0.545329
     75 O13        -1.5310    5.8440   -2.2400 o         1 MOL     -0.508347
     76 H32        -3.2640    8.3530   -0.7290 hn        1 MOL      0.317783
     77 H33        -1.2050    6.9990    0.7840 h1        1 MOL      0.044585
     78 H34        -0.9000    8.2490   -0.4210 h1        1 MOL      0.044585
     79 N8          0.3280    5.9730   -0.9720 n         1 MOL     -0.380577
     80 C25         1.1720    5.0900   -1.8020 c3        1 MOL     -0.222907
     81 C26         0.8050    3.5740   -1.5610 c         1 MOL      0.773279
     82 O14         0.5310    3.0870   -0.4480 o         1 MOL     -0.676529
     83 C27         2.6680    5.3290   -1.6420 c3        1 MOL      0.471945
     84 C28         3.1300    6.7440   -1.5760 c3        1 MOL     -0.335191
     85 O15         3.3450    4.7330   -2.7340 oh        1 MOL     -0.654107
     86 H35         0.7580    6.3580   -0.1510 hn        1 MOL      0.229598
     87 H36         0.8680    5.3230   -2.8220 h1        1 MOL      0.103266
     88 H37         2.9900    4.8060   -0.7510 h1        1 MOL      0.012312
     89 H38         3.1160    5.2940   -3.4800 ho        1 MOL      0.394284
     90 H39         2.7960    7.3760   -2.3950 hc        1 MOL      0.082062
     91 H40         2.6910    7.0250   -0.6190 hc        1 MOL      0.082062
     92 H41         4.2180    6.6610   -1.5300 hc        1 MOL      0.082062
     93 N9          0.6710    2.8780   -2.6890 n         1 MOL     -0.549395
     94 C29         0.2230    1.4350   -2.9310 c3        1 MOL      0.100852
     95 C30         0.8490    0.3110   -2.0170 c         1 MOL      0.269948
     96 O16         0.6830    0.3250   -0.8070 o         1 MOL     -0.452274
     97 C31        -1.3150    1.3240   -2.9430 c3        1 MOL      0.031174
     98 C32        -1.8200    2.3070   -4.0450 c3        1 MOL      0.203791
     99 C33        -1.7300   -0.0930   -3.4150 c3        1 MOL     -0.488548
    100 C34        -3.3440    2.3310   -4.2070 c3        1 MOL     -0.224695
    101 H42         0.6640    3.4700   -3.5060 hn        1 MOL      0.259884
    102 H43         0.4890    1.2610   -3.9770 h1        1 MOL      0.028465
    103 H44        -1.7850    1.5620   -1.9950 hc        1 MOL      0.096483
    104 H45        -1.5050    1.9840   -5.0430 hc        1 MOL     -0.022024
    105 H46        -1.5980    3.3560   -3.9100 hc        1 MOL     -0.022024
    106 H47        -1.5080   -0.3930   -4.4360 hc        1 MOL      0.117160
    107 H48        -1.3010   -0.8990   -2.8140 hc        1 MOL      0.117160
    108 H49        -2.8000   -0.2680   -3.2650 hc        1 MOL      0.117160
    109 H50        -3.7380    2.6950   -3.2590 hc        1 MOL      0.051459
    110 H51        -3.6270    3.0390   -4.9790 hc        1 MOL      0.051459
    111 H52        -3.6660    1.3100   -4.4200 hc        1 MOL      0.051459
    112 N10         1.4980   -0.6620   -2.6500 n         1 MOL     -0.236267
    113 C35         1.9940   -1.9590   -2.1140 c3        1 MOL      0.017317
    114 C36         3.4640   -2.1950   -2.4080 c         1 MOL      0.281680
    115 O17         4.0490   -3.2290   -2.1380 o         1 MOL     -0.529146
    116 C37         1.1150   -3.1300   -2.6190 c3        1 MOL      0.354347
    117 C38         1.0350   -3.2270   -4.1260 c3        1 MOL     -0.358046
    118 O18        -0.2220   -2.9690   -2.0410 oh        1 MOL     -0.586600
    119 H53         1.5550   -0.5990   -3.6590 hn        1 MOL      0.247936
    120 H54         1.7750   -1.8890   -1.0490 h1        1 MOL      0.110636
    121 H55         1.5480   -4.0060   -2.1490 h1        1 MOL      0.037637
    122 H56        -0.8070   -2.9670   -2.8060 ho        1 MOL      0.369697
    123 H57         1.9620   -3.2290   -4.6900 hc        1 MOL      0.090195
    124 H58         0.3850   -4.0930   -4.2490 hc        1 MOL      0.090195
    125 H59         0.5350   -2.3510   -4.5470 hc        1 MOL      0.090195
    126 N11         4.0090   -1.2970   -3.1510 n         1 MOL     -0.091680
    127 C39         5.4410   -1.3010   -3.5280 c3        1 MOL     -0.016794
    128 C40         6.3800   -1.1310   -2.2380 c         1 MOL      0.525078
    129 O19         6.9710   -0.0950   -2.0460 o         1 MOL     -0.541445
    130 C41         5.6990   -0.3700   -4.7220 c3        1 MOL      0.262616
    131 C42         5.5200   -1.2470   -5.9090 c3        1 MOL     -0.163653
    132 O20         4.8880    0.7860   -4.7950 oh        1 MOL     -0.619650
    133 H60         3.3900   -0.5430   -3.4150 hn        1 MOL      0.157332
    134 H61         5.6130   -2.3240   -3.8550 h1        1 MOL      0.034109
    135 H62         6.7470   -0.0820   -4.7200 h1        1 MOL      0.030617
    136 H63         5.3540    1.4170   -5.3530 ho        1 MOL      0.412577
    137 H64         4.5260   -1.6960   -5.9720 hc        1 MOL      0.043815
    138 H65         5.6130   -0.7750   -6.8810 hc        1 MOL      0.043815
    139 H66         6.3680   -1.9290   -5.9420 hc        1 MOL      0.043815
    140 N12         6.5360   -2.2010   -1.4870 n         1 MOL     -0.503322
    141 C43         7.0010   -2.3250   -0.1350 c3        1 MOL     -0.013029
    142 C44         6.0120   -1.6570    0.8010 c         1 MOL      0.619087
    143 O21         5.2830   -0.7980    0.4330 o         1 MOL     -0.509980
    144 C45         8.4480   -1.7810    0.0670 c3        1 MOL     -0.040062
    145 C46         9.5700   -2.5670   -0.6830 c3        1 MOL     -0.086518
    146 C47        11.0640   -2.0850   -0.4790 c3        1 MOL     -0.092664
    147 C48        11.1590   -0.5960   -0.8000 c3        1 MOL      0.059681
    148 N13        12.6290   -0.1490   -0.9270 n4        1 MOL     -0.282119
    149 H67         6.1410   -3.0710   -1.8180 hn        1 MOL      0.325927
    150 H68         7.1190   -3.3730    0.1430 h1        1 MOL      0.106593
    151 H69         8.5900   -1.5840    1.1350 hc        1 MOL      0.027359
    152 H70         8.6160   -0.7820   -0.3420 hc        1 MOL      0.027359
    153 H71         9.3020   -2.5330   -1.7380 hc        1 MOL      0.054591
    154 H72         9.4940   -3.6160   -0.3900 hc        1 MOL      0.054591
    155 H73        11.6560   -2.5480   -1.2670 hc        1 MOL      0.053012
    156 H74        11.4660   -2.1430    0.5290 hc        1 MOL      0.053012
    157 H75        10.7510   -0.0550    0.0480 hx        1 MOL      0.102457
    158 H76        10.6030   -0.4210   -1.7200 hx        1 MOL      0.102457
    159 H77        13.1200   -0.1940   -0.0420 hn        1 MOL      0.212788
    160 H78        13.1150   -0.7680   -1.5710 hn        1 MOL      0.212788
    161 H79        12.8020    0.7720   -1.2890 hn        1 MOL      0.212788
    162 N14         5.8420   -2.0940    2.0150 n         1 MOL     -0.522555
    163 C49         4.8710   -1.6370    2.9660 c3        1 MOL      0.529103
    164 C50         3.4660   -1.8380    2.4060 c         1 MOL      0.264101
    165 O22         2.7160   -0.8660    2.3050 o         1 MOL     -0.562063
    166 C51         5.0850   -2.2220    4.4350 c3        1 MOL     -0.457033
    167 C52         6.1800   -1.4200    5.0940 c3        1 MOL     -0.214915
    168 C53         6.8340   -2.1420    6.2540 c         1 MOL      0.709758
    169 O23         7.9160   -2.7820    6.2210 o         1 MOL     -0.663105
    170 O24         6.2400   -2.1490    7.3510 o         1 MOL     -0.663105
    171 H80         6.3180   -2.9640    2.2020 hn        1 MOL      0.256533
    172 H81         4.9400   -0.5500    3.0440 h1        1 MOL     -0.045118
    173 H82         5.2160   -3.3030    4.4860 hc        1 MOL      0.195083
    174 H83         4.2360   -1.8910    5.0360 hc        1 MOL      0.195083
    175 H84         5.8510   -0.4620    5.4810 hc        1 MOL      0.044432
    176 H85         6.9290   -1.2910    4.3090 hc        1 MOL      0.044432
    177 N15         2.8530   -3.0070    2.0430 n         1 MOL     -0.316214
    178 C54         3.2680   -4.3980    2.2320 c3        1 MOL     -0.047572
    179 H86         4.3550   -4.4610    2.1860 h1        1 MOL      0.041917
    180 H87         2.9260   -4.7500    3.2060 h1        1 MOL      0.041917
    181 H88         2.8350   -5.0180    1.4480 h1        1 MOL      0.041917
    182 H89         1.9050   -2.9370    1.7140 hn        1 MOL      0.377436
    183 Ca1         1.2820    1.5320    1.5900 Ca        1 MOL      1.766041
    184 O25         3.5840    1.8620    3.1970 oh        1 MOL     -0.847253
    185 H90         3.6280    1.5120    4.0890 ho        1 MOL      0.422627
    186 H91         4.4820    2.1200    2.9970 ho        1 MOL      0.422627
    187 O26        -1.1820    2.6780    1.7880 oh        1 MOL     -0.847253
    188 H92        -1.7100    2.8240    1.0050 ho        1 MOL      0.422627
    189 H93        -1.6400    3.1410    2.4900 ho        1 MOL      0.422627
    190 O27         2.2890    4.0260    1.8220 oh        1 MOL     -0.847253
    191 H94         3.0490    4.4520    2.2240 ho        1 MOL      0.422627
    192 H95         1.8370    4.7310    1.3620 ho        1 MOL      0.422627
    193 O28         3.2610    1.1180   -0.0440 oh        1 MOL     -0.847253
    194 H96         3.6520    1.6250   -0.7510 ho        1 MOL      0.422627
    195 H97         3.8550    0.3740    0.0730 ho        1 MOL      0.422627
    196 O29         0.9650    2.5970    4.0880 oh        1 MOL     -0.847253
    197 H98         1.6130    2.7110    4.7800 ho        1 MOL      0.422627
    198 H99         0.1300    2.7860    4.5190 ho        1 MOL      0.422627
@<TRIPOS>BOND
     1    1    2 1   
     2    1    4 1   
     3    1    5 1   
     4    1    6 1   
     5    2    3 2   
     6    2    7 1   
     7    7    8 1   
     8    7   15 1   
     9    8    9 1   
    10    8   11 1   
    11    8   16 1   
    12    9   10 2   
    13    9   19 1   
    14   11   12 1   
    15   11   17 1   
    16   11   18 1   
    17   12   13 1   
    18   12   14 1   
    19   19   20 1   
    20   19   28 1   
    21   20   21 1   
    22   20   23 1   
    23   20   29 1   
    24   21   22 2   
    25   21   41 1   
    26   23   24 1   
    27   23   30 1   
    28   23   31 1   
    29   24   25 1   
    30   24   32 1   
    31   24   33 1   
    32   25   26 1   
    33   25   34 1   
    34   25   35 1   
    35   26   27 1   
    36   26   36 1   
    37   26   37 1   
    38   27   38 1   
    39   27   39 1   
    40   27   40 1   
    41   41   42 1   
    42   41   49 1   
    43   42   43 1   
    44   42   45 1   
    45   42   50 1   
    46   43   44 2   
    47   43   53 1   
    48   45   46 1   
    49   45   51 1   
    50   45   52 1   
    51   46   47 1   
    52   46   48 1   
    53   53   54 1   
    54   53   57 1   
    55   54   55 1   
    56   54   58 1   
    57   54   59 1   
    58   55   56 2   
    59   55   60 1   
    60   60   61 1   
    61   60   68 1   
    62   61   62 1   
    63   61   64 1   
    64   61   69 1   
    65   62   63 2   
    66   62   72 1   
    67   64   65 1   
    68   64   70 1   
    69   64   71 1   
    70   65   66 1   
    71   65   67 1   
    72   72   73 1   
    73   72   76 1   
    74   73   74 1   
    75   73   77 1   
    76   73   78 1   
    77   74   75 2   
    78   74   79 1   
    79   79   80 1   
    80   79   86 1   
    81   80   81 1   
    82   80   83 1   
    83   80   87 1   
    84   81   82 2   
    85   81   93 1   
    86   83   84 1   
    87   83   85 1   
    88   83   88 1   
    89   84   90 1   
    90   84   91 1   
    91   84   92 1   
    92   85   89 1   
    93   93   94 1   
    94   93  101 1   
    95   94   95 1   
    96   94   97 1   
    97   94  102 1   
    98   95   96 2   
    99   95  112 1   
   100   97   98 1   
   101   97   99 1   
   102   97  103 1   
   103   98  100 1   
   104   98  104 1   
   105   98  105 1   
   106   99  106 1   
   107   99  107 1   
   108   99  108 1   
   109  100  109 1   
   110  100  110 1   
   111  100  111 1   
   112  112  113 1   
   113  112  119 1   
   114  113  114 1   
   115  113  116 1   
   116  113  120 1   
   117  114  115 2   
   118  114  126 1   
   119  116  117 1   
   120  116  118 1   
   121  116  121 1   
   122  117  123 1   
   123  117  124 1   
   124  117  125 1   
   125  118  122 1   
   126  126  127 1   
   127  126  133 1   
   128  127  128 1   
   129  127  130 1   
   130  127  134 1   
   131  128  129 2   
   132  128  140 1   
   133  130  131 1   
   134  130  132 1   
   135  130  135 1   
   136  131  137 1   
   137  131  138 1   
   138  131  139 1   
   139  132  136 1   
   140  140  141 1   
   141  140  149 1   
   142  141  142 1   
   143  141  144 1   
   144  141  150 1   
   145  142  143 2   
   146  142  162 1   
   147  144  145 1   
   148  144  151 1   
   149  144  152 1   
   150  145  146 1   
   151  145  153 1   
   152  145  154 1   
   153  146  147 1   
   154  146  155 1   
   155  146  156 1   
   156  147  148 1   
   157  147  157 1   
   158  147  158 1   
   159  148  159 1   
   160  148  160 1   
   161  148  161 1   
   162  162  163 1   
   163  162  171 1   
   164  163  164 1   
   165  163  166 1   
   166  163  172 1   
   167  164  165 2   
   168  164  177 1   
   169  166  167 1   
   170  166  173 1   
   171  166  174 1   
   172  167  168 1   
   173  167  175 1   
   174  167  176 1   
   175  168  169 1   
   176  168  170 1   
   177  177  178 1   
   178  177  182 1   
   179  178  179 1   
   180  178  180 1   
   181  178  181 1   
   182  184  185 1   
   183  184  186 1   
   184  187  188 1   
   185  187  189 1   
   186  190  191 1   
   187  190  192 1   
   188  193  194 1   
   189  193  195 1   
   190  196  197 1   
   191  196  198 1   
@<TRIPOS>SUBSTRUCTURE
     1 MOL         1 TEMP              0 ****  ****    0 ROOT
