@<TRIPOS>MOLECULE
MOL
  188   182     1     0     0
SMALL
resp


@<TRIPOS>ATOM
      1 C1          5.7950    0.3420    4.3950 c3        1 MOL     -0.289347
      2 C2          5.8340    0.6800    2.8960 c         1 MOL      0.507671
      3 O1          4.8770    0.4730    2.1690 o         1 MOL     -0.438539
      4 H1          6.7290   -0.1390    4.6830 hc        1 MOL      0.087665
      5 H2          5.6660    1.2590    4.9710 hc        1 MOL      0.087665
      6 H3          4.9630   -0.3320    4.5940 hc        1 MOL      0.087665
      7 N1          6.8460    1.5050    2.4970 n         1 MOL     -0.434539
      8 C3          7.0000    2.0920    1.1440 c3        1 MOL     -0.016517
      9 C4          6.9270    1.0300    0.0470 c         1 MOL      0.594913
     10 O2          6.4510    1.2270   -1.0650 o         1 MOL     -0.525125
     11 C5          6.0610    3.2970    0.9350 c3        1 MOL     -0.001730
     12 C6          6.1430    4.3020    2.0470 c         1 MOL      0.739833
     13 O3          5.2680    4.2690    2.9360 o         1 MOL     -0.668849
     14 O4          7.1490    5.0820    2.0220 o         1 MOL     -0.668849
     15 H4          7.4440    1.8840    3.2140 hn        1 MOL      0.292419
     16 H5          7.9950    2.5210    1.1080 h1        1 MOL      0.052937
     17 H6          5.0440    2.8960    1.0070 hc        1 MOL      0.012715
     18 H7          6.2130    3.6610   -0.0830 hc        1 MOL      0.012715
     19 N2          7.4160   -0.1960    0.3290 n         1 MOL     -0.459398
     20 C7          7.6340   -1.3200   -0.7270 c3        1 MOL     -0.014840
     21 C8          6.3540   -1.8670   -1.3030 c         1 MOL      0.548418
     22 O5          6.4190   -2.5740   -2.3070 o         1 MOL     -0.590473
     23 C9          8.5110   -2.4330   -0.0800 c3        1 MOL     -0.098399
     24 C10         7.9700   -2.9530    1.2050 c3        1 MOL      0.114048
     25 C11         8.4740   -4.3610    1.6530 c3        1 MOL     -0.019671
     26 C12         7.7780   -4.7270    2.9430 c3        1 MOL      0.169238
     27 N3          7.8920   -6.0850    3.4650 n4        1 MOL     -0.277715
     28 H8          7.6470   -0.3420    1.3000 hn        1 MOL      0.169656
     29 H9          8.0490   -0.8590   -1.6170 h1        1 MOL      0.125221
     30 H10         9.4760   -1.9330    0.0350 hc        1 MOL      0.049007
     31 H11         8.6630   -3.2490   -0.7920 hc        1 MOL      0.049007
     32 H12         6.9070   -3.1000    1.0330 hc        1 MOL     -0.005701
     33 H13         8.2100   -2.2530    2.0090 hc        1 MOL     -0.005701
     34 H14         9.5410   -4.2410    1.8400 hc        1 MOL      0.014484
     35 H15         8.2590   -5.1730    0.9470 hc        1 MOL      0.014484
     36 H16         6.7310   -4.6430    2.6240 hx        1 MOL      0.003245
     37 H17         8.0160   -3.9320    3.6530 hx        1 MOL      0.003245
     38 H18         7.3880   -6.1300    4.3380 hn        1 MOL      0.254398
     39 H19         7.4160   -6.7590    2.8930 hn        1 MOL      0.254398
     40 H20         8.8510   -6.3440    3.6820 hn        1 MOL      0.254398
     41 N4          5.2190   -1.5640   -0.7530 n         1 MOL     -0.094000
     42 C13         3.9210   -2.1750   -1.0530 c3        1 MOL      0.027170
     43 C14         3.3980   -1.8900   -2.4620 c         1 MOL      0.458705
     44 O6          3.4150   -0.7110   -2.8190 o         1 MOL     -0.467560
     45 C15         2.9070   -1.5870   -0.0680 c3        1 MOL     -0.463924
     46 C16         1.4660   -2.1120   -0.0300 c         1 MOL      0.623549
     47 O7          0.9710   -2.9290   -0.9010 o         1 MOL     -0.604730
     48 O8          0.7790   -1.8480    0.9760 o         1 MOL     -0.604730
     49 H21         5.1560   -0.9680    0.0610 hn        1 MOL      0.071025
     50 H22         3.9430   -3.2530   -0.9460 h1        1 MOL     -0.028279
     51 H23         2.9500   -0.5370   -0.3410 hc        1 MOL      0.187065
     52 H24         3.3330   -1.5630    0.9280 hc        1 MOL      0.187065
     53 N5          2.7970   -2.8770   -3.1790 n         1 MOL     -0.297553
     54 C17         2.1400   -2.7830   -4.4580 c3        1 MOL      0.157115
     55 C18         0.8880   -1.8370   -4.5850 c         1 MOL      0.314384
     56 O9          0.7220   -1.1180   -5.5580 o         1 MOL     -0.510273
     57 H25         3.0070   -3.8030   -2.8470 hn        1 MOL      0.183341
     58 H26         1.7930   -3.8030   -4.5920 h1        1 MOL      0.015727
     59 H27         2.8330   -2.6960   -5.2950 h1        1 MOL      0.015727
     60 N6          0.0710   -1.7480   -3.5900 n         1 MOL     -0.023257
     61 C19        -0.9540   -0.7660   -3.5310 c3        1 MOL     -0.145968
     62 C20        -0.5290    0.7050   -3.2760 c         1 MOL      0.608723
     63 O10        -1.2510    1.6600   -3.5770 o         1 MOL     -0.556887
     64 C21        -1.8950   -1.2170   -2.3810 c3        1 MOL     -0.480455
     65 C22        -2.3490   -2.6950   -2.6020 c         1 MOL      0.782430
     66 N7         -3.3150   -2.9080   -3.4460 n         1 MOL     -0.732965
     67 O11        -1.7840   -3.5820   -2.0030 o         1 MOL     -0.717133
     68 H28         0.3290   -2.2660   -2.7650 hn        1 MOL      0.036405
     69 H29        -1.4590   -0.8060   -4.4970 h1        1 MOL      0.102076
     70 H30        -2.7680   -0.5630   -2.4040 hc        1 MOL      0.175861
     71 H31        -1.5310   -1.1630   -1.3600 hc        1 MOL      0.175861
     72 H32        -3.7730   -2.1300   -3.9040 hn        1 MOL      0.360773
     73 H33        -3.6990   -3.8380   -3.4670 hn        1 MOL      0.360773
     74 N8          0.7160    0.9110   -2.8210 n         1 MOL     -0.164752
     75 C23         1.3110    2.2140   -2.5620 c3        1 MOL     -0.265893
     76 C24         0.8410    2.9070   -1.3250 c         1 MOL      0.561211
     77 O12         0.9290    2.1710   -0.3220 o         1 MOL     -0.523593
     78 H34         1.2860    0.0820   -2.7260 hn        1 MOL      0.215029
     79 H35         1.1140    2.8410   -3.4380 h1        1 MOL      0.120082
     80 H36         2.3840    2.1500   -2.3490 h1        1 MOL      0.120082
     81 N9          0.5400    4.2310   -1.3040 n         1 MOL     -0.517822
     82 C25         0.1410    5.0650   -0.1900 c3        1 MOL      0.076552
     83 C26        -1.1280    4.6260    0.5600 c         1 MOL      0.424693
     84 O13        -1.9880    5.4590    0.7710 o         1 MOL     -0.562242
     85 C27         1.2960    5.2060    0.8690 c3        1 MOL     -0.306390
     86 C28         2.4580    6.0680    0.3730 ca        1 MOL      0.059507
     87 C29         2.4800    7.4710    0.3250 ca        1 MOL     -0.034542
     88 C30         3.5260    5.4010   -0.2220 ca        1 MOL     -0.034542
     89 C31         3.5990    8.2030   -0.1620 ca        1 MOL     -0.434055
     90 C32         4.5800    6.0990   -0.8570 ca        1 MOL     -0.434055
     91 C33         4.6540    7.4810   -0.7450 ca        1 MOL      0.496596
     92 O14         5.8170    8.0650   -1.2320 oh        1 MOL     -0.528353
     93 H37         0.8390    4.6870   -2.1510 hn        1 MOL      0.319638
     94 H38        -0.0070    6.0790   -0.5640 h1        1 MOL      0.096833
     95 H39         1.6270    4.2230    1.1850 hc        1 MOL      0.145914
     96 H40         0.9680    5.5360    1.8520 hc        1 MOL      0.145914
     97 H41         1.5800    7.9720    0.6540 ha        1 MOL      0.094118
     98 H42         3.4620    4.3240   -0.3510 ha        1 MOL      0.094118
     99 H43         3.6290    9.2780   -0.1360 ha        1 MOL      0.200138
    100 H44         5.3640    5.4640   -1.2660 ha        1 MOL      0.200138
    101 H45         6.3460    7.3950   -1.6720 ho        1 MOL      0.364939
    102 N10        -1.3500    3.3590    0.7870 n         1 MOL     -0.062018
    103 C34        -2.5710    2.7310    1.2690 c3        1 MOL     -0.343811
    104 C35        -3.7870    2.8160    0.3610 c         1 MOL      0.494555
    105 O15        -4.3550    1.7320    0.0410 o         1 MOL     -0.461048
    106 C36        -2.9900    3.0920    2.7610 c3        1 MOL      0.214791
    107 C37        -2.0890    2.6360    3.9880 c3        1 MOL     -0.071146
    108 C38        -4.3250    2.3290    3.1040 c3        1 MOL     -0.310788
    109 C39        -0.7090    3.1680    4.0670 c3        1 MOL     -0.150285
    110 H46        -0.5370    2.7600    0.6860 hn        1 MOL      0.216875
    111 H47        -2.2690    1.6870    1.3680 h1        1 MOL      0.151683
    112 H48        -3.2620    4.1370    2.9220 hc        1 MOL      0.005668
    113 H49        -1.9970    1.5500    3.9740 hc        1 MOL      0.049529
    114 H50        -2.6860    2.9160    4.8610 hc        1 MOL      0.049529
    115 H51        -4.1950    1.2790    2.8370 hc        1 MOL      0.074968
    116 H52        -4.6510    2.4640    4.1320 hc        1 MOL      0.074968
    117 H53        -5.1470    2.6740    2.4840 hc        1 MOL      0.074968
    118 H54        -0.2160    2.6940    4.9260 hc        1 MOL      0.036513
    119 H55        -0.0230    2.9980    3.2350 hc        1 MOL      0.036513
    120 H56        -0.7000    4.2510    4.1370 hc        1 MOL      0.036513
    121 N11        -4.1310    3.9970   -0.1640 n         1 MOL     -0.268345
    122 C40        -5.1010    4.1150   -1.2230 c3        1 MOL     -0.305302
    123 C41        -6.5410    3.5900   -0.9570 c         1 MOL      0.492416
    124 O16        -7.1770    3.2280   -1.9730 o         1 MOL     -0.515295
    125 C42        -5.1260    5.6040   -1.7730 c3        1 MOL      0.328169
    126 O17        -3.9100    5.9360   -2.2730 oh        1 MOL     -0.612645
    127 H57        -3.5310    4.7590    0.1270 hn        1 MOL      0.277972
    128 H58        -4.7510    3.4680   -2.0280 h1        1 MOL      0.154111
    129 H59        -5.4230    6.3240   -1.0200 h1        1 MOL      0.016394
    130 H60        -5.9770    5.6060   -2.4600 h1        1 MOL      0.016394
    131 H61        -3.4740    5.2160   -2.7380 ho        1 MOL      0.416940
    132 N12        -7.0620    3.4920    0.2720 n         1 MOL     -0.325340
    133 C43        -8.3700    2.8300    0.5280 c3        1 MOL      0.209480
    134 C44        -8.3900    1.3140    0.1410 c         1 MOL      0.399911
    135 O18        -9.4520    0.7450    0.1430 o         1 MOL     -0.524291
    136 C45        -9.4660    3.5740   -0.1660 c3        1 MOL     -0.358739
    137 H62        -6.5120    3.9260    0.9890 hn        1 MOL      0.220736
    138 H63        -8.4950    2.9990    1.5930 h1        1 MOL      0.043651
    139 H64        -9.2440    4.6390   -0.1670 hc        1 MOL      0.101306
    140 H65        -9.4360    3.2530   -1.2080 hc        1 MOL      0.101306
    141 H66       -10.4480    3.2650    0.2070 hc        1 MOL      0.101306
    142 N13        -7.2040    0.6980    0.0470 n         1 MOL     -0.298517
    143 C46        -7.0730   -0.7610   -0.2760 c3        1 MOL      0.493280
    144 C47        -6.4540   -1.5300    0.8980 c         1 MOL      0.059234
    145 O19        -5.5670   -0.9500    1.6320 o         1 MOL     -0.365528
    146 C48        -6.2310   -0.9220   -1.5330 c3        1 MOL     -0.192631
    147 H67        -6.3310    1.1580    0.2170 hn        1 MOL      0.082753
    148 H68        -8.0470   -1.1830   -0.5130 h1        1 MOL     -0.034254
    149 H69        -5.9980   -1.9860   -1.6540 hc        1 MOL      0.035347
    150 H70        -6.8400   -0.5530   -2.3590 hc        1 MOL      0.035347
    151 H71        -5.3010   -0.3500   -1.5660 hc        1 MOL      0.035347
    152 N14        -6.7230   -2.8580    1.0010 n         1 MOL     -0.208675
    153 C49        -6.1610   -3.9710    1.7890 c3        1 MOL     -0.115760
    154 C50        -5.9940   -3.6890    3.3160 c         1 MOL      0.357843
    155 O20        -4.9860   -4.0660    3.9460 o         1 MOL     -0.439470
    156 C51        -4.8230   -4.2180    1.1090 c3        1 MOL      0.138291
    157 C52        -4.4090   -5.7080    1.1740 c3        1 MOL     -0.209507
    158 C53        -3.0130   -5.9700    0.6010 c         1 MOL      0.768285
    159 O21        -2.0300   -5.9930    1.3440 o         1 MOL     -0.777448
    160 O22        -2.8450   -6.0160   -0.6530 o         1 MOL     -0.777448
    161 H72        -7.5280   -3.0830    0.4250 hn        1 MOL      0.214799
    162 H73        -6.8280   -4.8170    1.6310 h1        1 MOL      0.086434
    163 H74        -4.1270   -3.5240    1.5700 hc        1 MOL      0.032199
    164 H75        -4.8770   -3.9440    0.0600 hc        1 MOL      0.032199
    165 H76        -5.1480   -6.2490    0.5880 hc        1 MOL      0.031974
    166 H77        -4.3820   -6.0760    2.2030 hc        1 MOL      0.031974
    167 N15        -6.9960   -2.9400    3.8180 n         1 MOL     -0.304428
    168 C54        -6.9900   -2.2420    5.1580 c3        1 MOL      0.082032
    169 H78        -6.1770   -2.6350    5.7670 h1        1 MOL      0.032273
    170 H79        -6.8480   -1.1710    5.0100 h1        1 MOL      0.032273
    171 H80        -7.9400   -2.4160    5.6640 h1        1 MOL      0.032273
    172 H81        -7.7810   -2.7990    3.2060 hn        1 MOL      0.239768
    173 Ca1        -0.3130   -5.1040   -0.4610 Ca        1 MOL      1.745629
    174 O23         0.1350   -7.8730    0.0030 oh        1 MOL     -0.800551
    175 H82         0.8440   -8.3950    0.3730 ho        1 MOL      0.400938
    176 H83        -0.5170   -8.5200   -0.2740 ho        1 MOL      0.400938
    177 O24         2.3840   -5.8330   -0.9910 oh        1 MOL     -0.800551
    178 H84         2.8800   -6.5690   -0.6230 ho        1 MOL      0.400938
    179 H85         2.8100   -5.6540   -1.8360 ho        1 MOL      0.400938
    180 O25        -0.0410   -5.7540   -2.9510 oh        1 MOL     -0.800551
    181 H86        -0.3610   -5.2580   -3.7150 ho        1 MOL      0.400938
    182 H87         0.2810   -6.5720   -3.3200 ho        1 MOL      0.400938
    183 O26         1.1730   -4.6560    1.7680 oh        1 MOL     -0.800551
    184 H88         1.2150   -3.8630    2.2960 ho        1 MOL      0.400938
    185 H89         2.0830   -4.9600    1.7060 ho        1 MOL      0.400938
    186 O27        -1.5670   -2.9680    0.8300 oh        1 MOL     -0.800551
    187 H90        -0.6660   -2.6410    0.8220 ho        1 MOL      0.400938
    188 H91        -2.1030   -2.1900    0.6460 ho        1 MOL      0.400938
@<TRIPOS>BOND
     1    1    2 1   
     2    1    4 1   
     3    1    5 1   
     4    1    6 1   
     5    2    3 2   
     6    2    7 1   
     7    7    8 1   
     8    7   15 1   
     9    8    9 1   
    10    8   11 1   
    11    8   16 1   
    12    9   10 2   
    13    9   19 1   
    14   11   12 1   
    15   11   17 1   
    16   11   18 1   
    17   12   13 1   
    18   12   14 1   
    19   19   20 1   
    20   19   28 1   
    21   20   21 1   
    22   20   23 1   
    23   20   29 1   
    24   21   22 2   
    25   21   41 1   
    26   23   24 1   
    27   23   30 1   
    28   23   31 1   
    29   24   25 1   
    30   24   32 1   
    31   24   33 1   
    32   25   26 1   
    33   25   34 1   
    34   25   35 1   
    35   26   27 1   
    36   26   36 1   
    37   26   37 1   
    38   27   38 1   
    39   27   39 1   
    40   27   40 1   
    41   41   42 1   
    42   41   49 1   
    43   42   43 1   
    44   42   45 1   
    45   42   50 1   
    46   43   44 2   
    47   43   53 1   
    48   45   46 1   
    49   45   51 1   
    50   45   52 1   
    51   46   47 1   
    52   46   48 1   
    53   53   54 1   
    54   53   57 1   
    55   54   55 1   
    56   54   58 1   
    57   54   59 1   
    58   55   56 2   
    59   55   60 1   
    60   60   61 1   
    61   60   68 1   
    62   61   62 1   
    63   61   64 1   
    64   61   69 1   
    65   62   63 2   
    66   62   74 1   
    67   64   65 1   
    68   64   70 1   
    69   64   71 1   
    70   65   66 1   
    71   65   67 2   
    72   66   72 1   
    73   66   73 1   
    74   74   75 1   
    75   74   78 1   
    76   75   76 1   
    77   75   79 1   
    78   75   80 1   
    79   76   77 2   
    80   76   81 1   
    81   81   82 1   
    82   81   93 1   
    83   82   83 1   
    84   82   85 1   
    85   82   94 1   
    86   83   84 2   
    87   83  102 1   
    88   85   86 1   
    89   85   95 1   
    90   85   96 1   
    91   86   87 ar  
    92   86   88 ar  
    93   87   89 ar  
    94   87   97 1   
    95   88   90 ar  
    96   88   98 1   
    97   89   91 ar  
    98   89   99 1   
    99   90   91 ar  
   100   90  100 1   
   101   91   92 1   
   102   92  101 1   
   103  102  103 1   
   104  102  110 1   
   105  103  104 1   
   106  103  106 1   
   107  103  111 1   
   108  104  105 2   
   109  104  121 1   
   110  106  107 1   
   111  106  108 1   
   112  106  112 1   
   113  107  109 1   
   114  107  113 1   
   115  107  114 1   
   116  108  115 1   
   117  108  116 1   
   118  108  117 1   
   119  109  118 1   
   120  109  119 1   
   121  109  120 1   
   122  121  122 1   
   123  121  127 1   
   124  122  123 1   
   125  122  125 1   
   126  122  128 1   
   127  123  124 2   
   128  123  132 1   
   129  125  126 1   
   130  125  129 1   
   131  125  130 1   
   132  126  131 1   
   133  132  133 1   
   134  132  137 1   
   135  133  134 1   
   136  133  136 1   
   137  133  138 1   
   138  134  135 2   
   139  134  142 1   
   140  136  139 1   
   141  136  140 1   
   142  136  141 1   
   143  142  143 1   
   144  142  147 1   
   145  143  144 1   
   146  143  146 1   
   147  143  148 1   
   148  144  145 2   
   149  144  152 1   
   150  146  149 1   
   151  146  150 1   
   152  146  151 1   
   153  152  153 1   
   154  152  161 1   
   155  153  154 1   
   156  153  156 1   
   157  153  162 1   
   158  154  155 2   
   159  154  167 1   
   160  156  157 1   
   161  156  163 1   
   162  156  164 1   
   163  157  158 1   
   164  157  165 1   
   165  157  166 1   
   166  158  159 1   
   167  158  160 1   
   168  167  168 1   
   169  167  172 1   
   170  168  169 1   
   171  168  170 1   
   172  168  171 1   
   173  174  175 1   
   174  174  176 1   
   175  177  178 1   
   176  177  179 1   
   177  180  181 1   
   178  180  182 1   
   179  183  184 1   
   180  183  185 1   
   181  186  187 1   
   182  186  188 1   
@<TRIPOS>SUBSTRUCTURE
     1 MOL         1 TEMP              0 ****  ****    0 ROOT
