@<TRIPOS>MOLECULE
MOL
  192   187     1     0     0
SMALL
resp


@<TRIPOS>ATOM
      1 C1         -2.8880   -5.6590    2.3710 c3        1 MOL     -0.237472
      2 C2         -1.9710   -4.7980    1.4450 c         1 MOL      0.636094
      3 O1         -1.5550   -3.7100    1.8430 o         1 MOL     -0.503356
      4 H1         -3.9260   -5.5470    2.0590 hc        1 MOL      0.043157
      5 H2         -2.5980   -6.7070    2.2960 hc        1 MOL      0.043157
      6 H3         -2.7800   -5.3240    3.4030 hc        1 MOL      0.043157
      7 N1         -1.6590   -5.2820    0.2090 n         1 MOL     -0.530903
      8 C3         -0.8520   -4.7100   -0.8900 c3        1 MOL     -0.004902
      9 C4          0.5810   -4.3230   -0.5940 c         1 MOL      0.519782
     10 O2          1.2860   -4.0920   -1.5480 o         1 MOL     -0.569036
     11 C5         -1.5710   -3.6060   -1.6050 c3        1 MOL     -0.190294
     12 C6         -3.0280   -3.8570   -1.7950 c         1 MOL      0.474067
     13 O3         -3.9350   -3.3520   -1.0610 o         1 MOL     -0.632531
     14 O4         -3.3190   -4.7410   -2.6460 o         1 MOL     -0.632531
     15 H4         -2.1020   -6.1720    0.0180 hn        1 MOL      0.239611
     16 H5         -0.7040   -5.4470   -1.6770 h1        1 MOL      0.125810
     17 H6         -1.0560   -3.4260   -2.5490 hc        1 MOL      0.120137
     18 H7         -1.4800   -2.7020   -1.0090 hc        1 MOL      0.120137
     19 N2          0.9640   -4.2260    0.6740 n         1 MOL     -0.230986
     20 C7          2.3050   -4.0470    1.2420 c3        1 MOL     -0.054949
     21 C8          3.0910   -5.3190    1.1350 c         1 MOL      0.343537
     22 O5          2.5270   -6.4050    0.8720 o         1 MOL     -0.565884
     23 C9          2.2080   -3.4980    2.7050 c3        1 MOL     -0.007330
     24 C10         1.6000   -4.5530    3.6680 c3        1 MOL      0.220202
     25 C11         1.5110   -2.1630    2.6920 c3        1 MOL     -0.124831
     26 C12         1.4130   -4.2670    5.1190 c3        1 MOL     -0.286777
     27 H8          0.2250   -4.4990    1.3000 hn        1 MOL      0.173957
     28 H9          2.8540   -3.3300    0.6210 h1        1 MOL      0.126840
     29 H10         3.2400   -3.2550    2.9680 hc        1 MOL      0.043527
     30 H11         2.1650   -5.4900    3.6290 hc        1 MOL     -0.005211
     31 H12         0.6410   -4.8300    3.2250 hc        1 MOL     -0.005211
     32 H13         2.0960   -1.4950    2.0590 hc        1 MOL      0.048971
     33 H14         0.4900   -2.1850    2.2920 hc        1 MOL      0.048971
     34 H15         1.3770   -1.8340    3.7200 hc        1 MOL      0.048971
     35 H16         0.6480   -3.4900    5.1590 hc        1 MOL      0.059187
     36 H17         1.0830   -5.2320    5.4930 hc        1 MOL      0.059187
     37 H18         2.2690   -3.9000    5.6780 hc        1 MOL      0.059187
     38 N3          4.3760   -5.2690    1.0580 n         1 MOL     -0.263920
     39 C13         5.3650   -4.0500    1.1070 c3        1 MOL      0.030622
     40 C14         5.4460   -3.2710   -0.2500 c         1 MOL      0.545103
     41 O6          5.3420   -2.0350   -0.2140 o         1 MOL     -0.512027
     42 C15         6.7860   -4.5850    1.5470 c3        1 MOL     -0.340954
     43 C16         6.7710   -5.2220    2.9450 c         1 MOL      0.733947
     44 O7          6.7380   -4.5490    4.0100 o         1 MOL     -0.678858
     45 O8          6.6940   -6.4500    3.0900 o         1 MOL     -0.678858
     46 H19         4.7620   -6.1730    0.8080 hn        1 MOL      0.245407
     47 H20         4.8580   -3.3510    1.7750 h1        1 MOL      0.062984
     48 H21         7.5080   -3.7690    1.5040 hc        1 MOL      0.074652
     49 H22         7.0080   -5.3560    0.8080 hc        1 MOL      0.074652
     50 N4          5.5250   -4.0280   -1.3380 n         1 MOL     -0.377441
     51 C17         5.6170   -3.4130   -2.6340 c3        1 MOL     -0.138375
     52 C18         6.7630   -2.4100   -2.8100 c         1 MOL      0.483952
     53 O9          7.9150   -2.7730   -2.5830 o         1 MOL     -0.560012
     54 H23         5.7310   -5.0080   -1.2510 hn        1 MOL      0.311792
     55 H24         4.6380   -3.0540   -2.9680 h1        1 MOL      0.093512
     56 H25         5.7970   -4.1990   -3.3720 h1        1 MOL      0.093512
     57 N5          6.4800   -1.1510   -3.1250 n         1 MOL     -0.400638
     58 C19         7.4530   -0.0600   -3.3260 c3        1 MOL      0.057703
     59 C20         8.0510    0.4610   -2.0400 c         1 MOL      0.397284
     60 O10         9.0660    1.1550   -2.0780 o         1 MOL     -0.557080
     61 C21         6.7050    0.9810   -4.1160 c3        1 MOL     -0.302560
     62 C22         5.3410    1.5040   -3.6140 c         1 MOL      0.764531
     63 O11         4.7560    2.3330   -4.3690 o         1 MOL     -0.714781
     64 O12         4.9040    1.1350   -2.5030 o         1 MOL     -0.714781
     65 H26         5.5180   -0.8480   -3.2170 hn        1 MOL      0.269702
     66 H27         8.2300   -0.5190   -3.9450 h1        1 MOL      0.093395
     67 H28         6.3870    0.4900   -5.0380 hc        1 MOL      0.056528
     68 H29         7.3120    1.8400   -4.3770 hc        1 MOL      0.056528
     69 N6          7.4530    0.0830   -0.8920 n         1 MOL     -0.032989
     70 C23         7.8160    0.5250    0.4620 c3        1 MOL     -0.401951
     71 C24         7.2740    1.9190    0.8010 c         1 MOL      0.669864
     72 O13         7.6400    2.4390    1.8930 o         1 MOL     -0.582334
     73 H30         6.5990   -0.4370   -0.9560 hn        1 MOL      0.184059
     74 H31         8.8930    0.4100    0.5250 h1        1 MOL      0.160468
     75 H32         7.4590   -0.2050    1.1920 h1        1 MOL      0.160468
     76 N7          6.4560    2.4950   -0.0700 n         1 MOL     -0.343864
     77 C25         5.9610    3.8300    0.0500 c3        1 MOL      0.101523
     78 C26         5.1420    4.2070    1.3260 c         1 MOL      0.341505
     79 O14         4.9820    5.3210    1.7310 o         1 MOL     -0.475578
     80 C27         7.0160    4.9070   -0.2860 c3        1 MOL     -0.169511
     81 C28         7.5980    4.6520   -1.7250 c3        1 MOL     -0.099954
     82 C29         8.2770    5.9070   -2.3060 c         1 MOL      0.663148
     83 N8          8.3370    5.9910   -3.6260 n         1 MOL     -0.822838
     84 O15         8.8580    6.7300   -1.6380 o         1 MOL     -0.572975
     85 H33         6.2860    2.1220   -0.9970 hn        1 MOL      0.217016
     86 H34         5.2530    3.9330   -0.7670 h1        1 MOL      0.065478
     87 H35         7.8340    4.8580    0.4300 hc        1 MOL      0.067717
     88 H36         6.5150    5.8650   -0.2250 hc        1 MOL      0.067717
     89 H37         6.7790    4.2980   -2.3430 hc        1 MOL      0.064104
     90 H38         8.2910    3.8180   -1.7040 hc        1 MOL      0.064104
     91 H39         7.9210    5.2750   -4.2020 hn        1 MOL      0.356778
     92 H40         8.6910    6.8270   -4.0600 hn        1 MOL      0.356778
     93 N9          4.5700    3.1430    1.9760 n         1 MOL     -0.090836
     94 C30         3.6170    3.1240    3.0870 c3        1 MOL     -0.158413
     95 C31         2.2020    2.8510    2.7470 c         1 MOL      0.565393
     96 O16         1.2730    3.2800    3.4820 o         1 MOL     -0.549712
     97 C32         4.0810    2.0430    4.2000 c3        1 MOL      0.224626
     98 C33         4.2670    0.6750    3.4740 c3        1 MOL     -0.295423
     99 C34         5.4300    2.3930    4.9030 c3        1 MOL     -0.295423
    100 H41         4.8880    2.2860    1.5350 hn        1 MOL      0.152175
    101 H42         3.6520    4.1150    3.5510 h1        1 MOL      0.102083
    102 H43         3.3100    1.9590    4.9560 hc        1 MOL     -0.005704
    103 H44         5.1840    0.7060    2.8810 hc        1 MOL      0.070422
    104 H45         4.2850   -0.0400    4.3060 hc        1 MOL      0.070422
    105 H46         3.3860    0.4340    2.8820 hc        1 MOL      0.070422
    106 H47         5.6120    1.6500    5.6930 hc        1 MOL      0.070422
    107 H48         6.2380    2.3990    4.1740 hc        1 MOL      0.070422
    108 H49         5.4430    3.3900    5.3480 hc        1 MOL      0.070422
    109 N10         1.9740    2.1570    1.6070 n         1 MOL     -0.474499
    110 C35         0.6270    1.8090    1.1330 c3        1 MOL      0.005994
    111 C36        -0.1780    3.0440    0.6250 c         1 MOL      0.591808
    112 O17         0.2980    4.1600    0.3870 o         1 MOL     -0.510163
    113 C37         0.8210    0.8470   -0.0600 c3        1 MOL     -0.038858
    114 C38        -0.5060    0.3440   -0.5420 c         1 MOL      0.455177
    115 N11        -0.7270    0.3500   -1.8370 n         1 MOL     -0.800146
    116 O18        -1.3380    0.0110    0.2420 o         1 MOL     -0.506451
    117 H50         2.7730    1.9280    1.0350 hn        1 MOL      0.222458
    118 H51         0.0530    1.2890    1.9000 h1        1 MOL      0.085546
    119 H52         1.4430   -0.0340    0.0770 hc        1 MOL      0.070256
    120 H53         1.3000    1.4070   -0.8690 hc        1 MOL      0.070256
    121 H54        -0.0570    0.6400   -2.5290 hn        1 MOL      0.389890
    122 H55        -1.5980   -0.0460   -2.1430 hn        1 MOL      0.389890
    123 N12        -1.4950    2.8690    0.4450 n         1 MOL     -0.362251
    124 C39        -2.6020    3.8450    0.1790 c3        1 MOL     -0.146293
    125 C40        -3.9840    3.1620    0.2310 c         1 MOL      0.675811
    126 O19        -4.2210    2.1020   -0.3410 o         1 MOL     -0.499112
    127 C41        -2.4130    4.3950   -1.2800 c3        1 MOL     -0.039165
    128 C42        -3.4360    5.4110   -1.7480 ca        1 MOL      0.055387
    129 C43        -3.6310    6.6420   -1.0160 ca        1 MOL     -0.210116
    130 C44        -4.2490    5.2270   -2.9090 ca        1 MOL     -0.210116
    131 C45        -4.5970    7.6680   -1.3670 ca        1 MOL     -0.205675
    132 C46        -5.3070    6.1470   -3.2740 ca        1 MOL     -0.205675
    133 C47        -5.3850    7.3720   -2.4910 ca        1 MOL      0.256164
    134 O20        -6.2960    8.3370   -2.9290 oh        1 MOL     -0.501244
    135 H56        -2.0000    2.0490    0.7390 hn        1 MOL      0.221745
    136 H57        -2.6120    4.6050    0.9570 h1        1 MOL      0.099889
    137 H58        -2.3980    3.5060   -1.9050 hc        1 MOL      0.062880
    138 H59        -1.4340    4.8680   -1.3880 hc        1 MOL      0.062880
    139 H60        -3.0220    6.8170   -0.1520 ha        1 MOL      0.148330
    140 H61        -4.1060    4.3530   -3.5230 ha        1 MOL      0.148330
    141 H62        -4.6650    8.6050   -0.8320 ha        1 MOL      0.150279
    142 H63        -5.9110    5.9690   -4.1500 ha        1 MOL      0.150279
    143 H64        -6.4400    8.9990   -2.2480 ho        1 MOL      0.346293
    144 N13        -4.9830    3.8230    0.7840 n         1 MOL     -0.454955
    145 C48        -6.2520    3.1330    1.0590 c3        1 MOL      0.132725
    146 C49        -7.2210    2.9360   -0.0790 c         1 MOL      0.619113
    147 O21        -7.5720    3.7700   -0.8610 o         1 MOL     -0.548192
    148 C50        -7.0610    3.7870    2.1680 c3        1 MOL     -0.110135
    149 C51        -6.5160    3.5570    3.5230 c3        1 MOL     -0.093649
    150 C52        -7.1220    4.6180    4.4210 c         1 MOL      0.712809
    151 O22        -7.8460    4.2020    5.3260 o         1 MOL     -0.707366
    152 O23        -6.7590    5.8310    4.2990 o         1 MOL     -0.707366
    153 H65        -4.8230    4.6730    1.2970 hn        1 MOL      0.260769
    154 H66        -6.1190    2.1630    1.5220 h1        1 MOL     -0.039297
    155 H67        -8.0800    3.4110    2.0700 hc        1 MOL      0.053253
    156 H68        -7.2750    4.8370    1.9510 hc        1 MOL      0.053253
    157 H69        -5.4420    3.6450    3.6450 hc        1 MOL      0.017266
    158 H70        -6.8040    2.5780    3.9100 hc        1 MOL      0.017266
    159 N14        -7.7720    1.7660   -0.2540 n         1 MOL     -0.580328
    160 C53        -7.4710    0.3820    0.3280 c3        1 MOL      0.084741
    161 C54        -8.2270   -0.0760    1.5850 c         1 MOL      0.430652
    162 O24        -9.4100    0.2450    1.7330 o         1 MOL     -0.511844
    163 C55        -7.5780   -0.6680   -0.7040 c3        1 MOL      0.000382
    164 C56        -6.4520   -0.4600   -1.7490 c3        1 MOL     -0.361729
    165 C57        -6.6670   -1.3850   -2.9130 c         1 MOL      0.784837
    166 O25        -7.2500   -0.9540   -3.9000 o         1 MOL     -0.701921
    167 O26        -6.1760   -2.5490   -2.9430 o         1 MOL     -0.701921
    168 H71        -8.2020    1.6700   -1.1630 hn        1 MOL      0.319950
    169 H72        -6.4400    0.3700    0.6930 h1        1 MOL      0.032302
    170 H73        -8.5770   -0.6890   -1.1490 hc        1 MOL      0.029143
    171 H74        -7.5040   -1.6500   -0.2480 hc        1 MOL      0.029143
    172 H75        -5.4960   -0.7110   -1.2940 hc        1 MOL      0.103584
    173 H76        -6.3180    0.5530   -2.1400 hc        1 MOL      0.103584
    174 N15        -7.5720   -0.9570    2.3750 n         1 MOL     -0.156307
    175 C58        -8.1310   -1.3810    3.6530 c3        1 MOL     -0.426975
    176 H77        -9.0620   -1.9200    3.4800 h1        1 MOL      0.146940
    177 H78        -7.4220   -2.0350    4.1610 h1        1 MOL      0.146940
    178 H79        -8.3270   -0.5070    4.2730 h1        1 MOL      0.146940
    179 H80        -6.5860   -1.1000    2.2490 hn        1 MOL      0.245494
    180 Ca1        -5.8280   -5.0950   -1.9040 Ca        1 MOL      1.588994
    181 O27        -4.6330   -7.3320   -2.9770 oh        1 MOL     -0.829029
    182 H81        -5.2100   -8.0860   -3.0760 ho        1 MOL      0.384656
    183 H82        -3.7840   -7.6450   -3.2930 ho        1 MOL      0.384656
    184 O28        -7.1820   -4.3320    0.2700 oh        1 MOL     -0.829029
    185 H83        -6.6510   -3.7480    0.8100 ho        1 MOL      0.384656
    186 H84        -7.8290   -4.6950    0.8720 ho        1 MOL      0.384656
    187 O29        -6.7600   -5.5090   -4.5900 oh        1 MOL     -0.829029
    188 H85        -7.5000   -6.0140   -4.9150 ho        1 MOL      0.384656
    189 H86        -6.1850   -5.4040   -5.3480 ho        1 MOL      0.384656
    190 O30        -8.6190   -5.0700   -2.4650 oh        1 MOL     -0.829029
    191 H87        -8.5790   -4.7850   -3.3770 ho        1 MOL      0.384656
    192 H88        -9.0670   -5.9190   -2.4930 ho        1 MOL      0.384656
@<TRIPOS>BOND
     1    1    2 1   
     2    1    4 1   
     3    1    5 1   
     4    1    6 1   
     5    2    3 2   
     6    2    7 1   
     7    7    8 1   
     8    7   15 1   
     9    8    9 1   
    10    8   11 1   
    11    8   16 1   
    12    9   10 2   
    13    9   19 1   
    14   11   12 1   
    15   11   17 1   
    16   11   18 1   
    17   12   13 1   
    18   12   14 1   
    19   19   20 1   
    20   19   27 1   
    21   20   21 1   
    22   20   23 1   
    23   20   28 1   
    24   21   22 2   
    25   21   38 1   
    26   23   24 1   
    27   23   25 1   
    28   23   29 1   
    29   24   26 1   
    30   24   30 1   
    31   24   31 1   
    32   25   32 1   
    33   25   33 1   
    34   25   34 1   
    35   26   35 1   
    36   26   36 1   
    37   26   37 1   
    38   38   39 1   
    39   38   46 1   
    40   39   40 1   
    41   39   42 1   
    42   39   47 1   
    43   40   41 2   
    44   40   50 1   
    45   42   43 1   
    46   42   48 1   
    47   42   49 1   
    48   43   44 1   
    49   43   45 1   
    50   50   51 1   
    51   50   54 1   
    52   51   52 1   
    53   51   55 1   
    54   51   56 1   
    55   52   53 2   
    56   52   57 1   
    57   57   58 1   
    58   57   65 1   
    59   58   59 1   
    60   58   61 1   
    61   58   66 1   
    62   59   60 2   
    63   59   69 1   
    64   61   62 1   
    65   61   67 1   
    66   61   68 1   
    67   62   63 1   
    68   62   64 1   
    69   69   70 1   
    70   69   73 1   
    71   70   71 1   
    72   70   74 1   
    73   70   75 1   
    74   71   72 2   
    75   71   76 1   
    76   76   77 1   
    77   76   85 1   
    78   77   78 1   
    79   77   80 1   
    80   77   86 1   
    81   78   79 2   
    82   78   93 1   
    83   80   81 1   
    84   80   87 1   
    85   80   88 1   
    86   81   82 1   
    87   81   89 1   
    88   81   90 1   
    89   82   83 1   
    90   82   84 2   
    91   83   91 1   
    92   83   92 1   
    93   93   94 1   
    94   93  100 1   
    95   94   95 1   
    96   94   97 1   
    97   94  101 1   
    98   95   96 2   
    99   95  109 1   
   100   97   98 1   
   101   97   99 1   
   102   97  102 1   
   103   98  103 1   
   104   98  104 1   
   105   98  105 1   
   106   99  106 1   
   107   99  107 1   
   108   99  108 1   
   109  109  110 1   
   110  109  117 1   
   111  110  111 1   
   112  110  113 1   
   113  110  118 1   
   114  111  112 2   
   115  111  123 1   
   116  113  114 1   
   117  113  119 1   
   118  113  120 1   
   119  114  115 1   
   120  114  116 2   
   121  115  121 1   
   122  115  122 1   
   123  123  124 1   
   124  123  135 1   
   125  124  125 1   
   126  124  127 1   
   127  124  136 1   
   128  125  126 2   
   129  125  144 1   
   130  127  128 1   
   131  127  137 1   
   132  127  138 1   
   133  128  129 ar  
   134  128  130 ar  
   135  129  131 ar  
   136  129  139 1   
   137  130  132 ar  
   138  130  140 1   
   139  131  133 ar  
   140  131  141 1   
   141  132  133 ar  
   142  132  142 1   
   143  133  134 1   
   144  134  143 1   
   145  144  145 1   
   146  144  153 1   
   147  145  146 1   
   148  145  148 1   
   149  145  154 1   
   150  146  147 2   
   151  146  159 1   
   152  148  149 1   
   153  148  155 1   
   154  148  156 1   
   155  149  150 1   
   156  149  157 1   
   157  149  158 1   
   158  150  151 1   
   159  150  152 1   
   160  159  160 1   
   161  159  168 1   
   162  160  161 1   
   163  160  163 1   
   164  160  169 1   
   165  161  162 2   
   166  161  174 1   
   167  163  164 1   
   168  163  170 1   
   169  163  171 1   
   170  164  165 1   
   171  164  172 1   
   172  164  173 1   
   173  165  166 1   
   174  165  167 1   
   175  174  175 1   
   176  174  179 1   
   177  175  176 1   
   178  175  177 1   
   179  175  178 1   
   180  181  182 1   
   181  181  183 1   
   182  184  185 1   
   183  184  186 1   
   184  187  188 1   
   185  187  189 1   
   186  190  191 1   
   187  190  192 1   
@<TRIPOS>SUBSTRUCTURE
     1 MOL         1 TEMP              0 ****  ****    0 ROOT
