@<TRIPOS>MOLECULE
MOL
  198   191     1     0     0
SMALL
resp


@<TRIPOS>ATOM
      1 C1        -10.0520   -5.8110   -0.3550 c3        1 MOL     -0.343902
      2 C2         -9.0950   -4.6340   -0.4780 c         1 MOL      0.596010
      3 O1         -8.0210   -4.7540   -1.1220 o         1 MOL     -0.609927
      4 H1        -10.2660   -5.9960    0.6980 hc        1 MOL      0.091270
      5 H2        -10.9800   -5.5810   -0.8790 hc        1 MOL      0.091270
      6 H3         -9.5960   -6.6980   -0.7940 hc        1 MOL      0.091270
      7 N1         -9.4290   -3.4960    0.0930 n         1 MOL     -0.274332
      8 C3         -8.5560   -2.2830    0.0430 c3        1 MOL     -0.200683
      9 C4         -7.4020   -2.4900    1.1070 c         1 MOL      0.261589
     10 O2         -7.5730   -2.2910    2.2990 o         1 MOL     -0.417746
     11 C5         -9.3950   -0.9770    0.3270 c3        1 MOL     -0.141625
     12 C6        -10.4770   -0.7430   -0.6270 c         1 MOL      0.662219
     13 O3        -10.1880   -0.6880   -1.8490 o         1 MOL     -0.606421
     14 O4        -11.6340   -0.6580   -0.1260 o         1 MOL     -0.606421
     15 H4        -10.3110   -3.4630    0.5810 hn        1 MOL      0.284838
     16 H5         -8.1530   -2.1430   -0.9650 h1        1 MOL      0.131093
     17 H6         -8.7260   -0.1230    0.4000 hc        1 MOL      0.070096
     18 H7         -9.8400   -0.9410    1.3240 hc        1 MOL      0.070096
     19 N2         -6.3430   -3.1670    0.5920 n         1 MOL     -0.030807
     20 C7         -5.2270   -3.8800    1.1780 c3        1 MOL      0.045120
     21 C8         -4.6120   -3.3160    2.5030 c         1 MOL      0.553144
     22 O5         -4.5710   -3.9670    3.4910 o         1 MOL     -0.557353
     23 C9         -4.3200   -4.1490    0.0070 c3        1 MOL     -0.051096
     24 C10        -3.0420   -4.9080    0.3950 c3        1 MOL     -0.054385
     25 C11        -2.4000   -5.3390   -0.8920 c3        1 MOL      0.002282
     26 C12        -1.2630   -6.3160   -0.7200 c3        1 MOL     -0.014265
     27 N3         -0.8550   -7.0040   -2.0100 n4        1 MOL     -0.321114
     28 H8         -6.3120   -3.1810   -0.4150 hn        1 MOL      0.147011
     29 H9         -5.6450   -4.8540    1.3990 h1        1 MOL      0.016655
     30 H10        -3.8880   -3.1990   -0.3330 hc        1 MOL      0.044375
     31 H11        -4.9430   -4.6680   -0.7160 hc        1 MOL      0.044375
     32 H12        -3.2900   -5.7850    0.9950 hc        1 MOL      0.027168
     33 H13        -2.4900   -4.1500    0.9500 hc        1 MOL      0.027168
     34 H14        -2.1710   -4.4920   -1.5330 hc        1 MOL      0.033893
     35 H15        -3.1650   -5.8650   -1.4490 hc        1 MOL      0.033893
     36 H16        -1.6650   -7.0560   -0.0320 hx        1 MOL      0.074588
     37 H17        -0.4190   -5.8190   -0.2180 hx        1 MOL      0.074588
     38 H18        -0.6970   -6.3360   -2.7490 hn        1 MOL      0.296888
     39 H19        -0.0200   -7.5740   -1.9730 hn        1 MOL      0.296888
     40 H20        -1.6400   -7.4700   -2.4290 hn        1 MOL      0.296888
     41 N4         -4.2080   -2.0550    2.5610 n         1 MOL     -0.603085
     42 C13        -4.0750   -1.0220    1.4130 c3        1 MOL      0.434143
     43 C14        -4.8160    0.2520    1.8660 c         1 MOL      0.465212
     44 O6         -4.8230    0.7080    3.0080 o         1 MOL     -0.473982
     45 C15        -2.6410   -0.7950    1.0100 c3        1 MOL     -0.011047
     46 C16        -1.7140   -0.2680    2.1570 c         1 MOL      0.390320
     47 O7         -0.5420    0.0080    1.7590 o         1 MOL     -0.564651
     48 O8         -2.0910   -0.2020    3.3490 o         1 MOL     -0.564651
     49 H21        -3.8980   -1.8030    3.4880 hn        1 MOL      0.358692
     50 H22        -4.5180   -1.3710    0.4860 h1        1 MOL     -0.118331
     51 H23        -2.7010   -0.0440    0.2260 hc        1 MOL     -0.014698
     52 H24        -2.1510   -1.6860    0.6070 hc        1 MOL     -0.014698
     53 N5         -5.4830    0.8400    0.8540 n         1 MOL     -0.485266
     54 C17        -5.6770    2.2530    0.9170 c3        1 MOL      0.068206
     55 C18        -4.5530    3.0790    0.2430 c         1 MOL      0.569376
     56 O9         -3.5790    2.4290   -0.1970 o         1 MOL     -0.580522
     57 H25        -5.2090    0.4400   -0.0310 hn        1 MOL      0.266243
     58 H26        -5.8700    2.6490    1.9130 h1        1 MOL      0.088488
     59 H27        -6.6420    2.3920    0.4270 h1        1 MOL      0.088488
     60 N6         -4.6630    4.3950    0.2410 n         1 MOL     -0.735116
     61 C19        -3.6790    5.3350   -0.2800 c3        1 MOL      0.835848
     62 C20        -4.0050    5.8370   -1.7090 c         1 MOL      0.319413
     63 O10        -5.1800    6.1210   -1.9890 o         1 MOL     -0.500363
     64 C21        -3.5060    6.5430    0.6900 c3        1 MOL     -0.353930
     65 C22        -4.7470    7.0500    1.4520 c         1 MOL      0.732093
     66 O11        -5.6770    6.3000    1.7700 o         1 MOL     -0.689960
     67 O12        -4.7930    8.2870    1.8070 o         1 MOL     -0.689960
     68 H28        -5.4820    4.7620    0.7030 hn        1 MOL      0.325739
     69 H29        -2.7390    4.7780   -0.3570 h1        1 MOL     -0.228789
     70 H30        -3.0750    7.4050    0.1800 hc        1 MOL      0.032392
     71 H31        -2.7810    6.3360    1.4760 hc        1 MOL      0.032392
     72 N7         -3.0890    6.1990   -2.5980 n         1 MOL     -0.405854
     73 C23        -1.7010    5.8680   -2.4800 c3        1 MOL     -0.102957
     74 C24        -1.2890    4.5700   -3.0880 c         1 MOL      0.692147
     75 O13        -2.0430    3.7880   -3.6630 o         1 MOL     -0.540920
     76 H32        -3.4050    6.5030   -3.5090 hn        1 MOL      0.319333
     77 H33        -1.3100    5.8720   -1.4550 h1        1 MOL      0.059984
     78 H34        -1.1460    6.5910   -3.0850 h1        1 MOL      0.059984
     79 N8          0.0330    4.3990   -3.0040 n         1 MOL     -0.486708
     80 C25         0.6810    3.2850   -3.6840 c3        1 MOL      0.011757
     81 C26         0.6160    1.9810   -2.8590 c         1 MOL      0.997309
     82 O14         0.4470    2.1160   -1.6360 o         1 MOL     -0.725673
     83 C27         2.1530    3.6140   -3.8680 c3        1 MOL      0.324669
     84 C28         3.0120    3.7930   -2.6370 c3        1 MOL     -0.298440
     85 O15         2.2830    4.8400   -4.5860 oh        1 MOL     -0.606310
     86 H35         0.5950    5.0970   -2.5480 hn        1 MOL      0.258002
     87 H36         0.2520    3.1770   -4.6790 h1        1 MOL      0.066697
     88 H37         2.5150    2.7950   -4.4820 h1        1 MOL     -0.050740
     89 H38         3.2350    4.8220   -4.7440 ho        1 MOL      0.391594
     90 H39         2.8920    2.8640   -2.0810 hc        1 MOL      0.063777
     91 H40         4.0240    3.9180   -3.0150 hc        1 MOL      0.063777
     92 H41         2.7810    4.6800   -2.0480 hc        1 MOL      0.063777
     93 N9          0.5950    0.8470   -3.5680 n         1 MOL     -0.823184
     94 C29         0.2470   -0.4670   -3.0610 c3        1 MOL     -0.043220
     95 C30         1.2190   -0.9840   -1.9900 c         1 MOL      0.732135
     96 O16         1.2090   -0.4020   -0.9200 o         1 MOL     -0.628673
     97 C31        -1.2000   -0.5700   -2.6230 c3        1 MOL      0.118525
     98 C32        -2.2590    0.0480   -3.5760 c3        1 MOL      0.144659
     99 C33        -1.6590   -2.0010   -2.2990 c3        1 MOL     -0.924973
    100 C34        -2.2120   -0.3250   -5.0450 c3        1 MOL     -0.125151
    101 H42         0.9410    0.8320   -4.5130 hn        1 MOL      0.374273
    102 H43         0.4640   -1.0620   -3.9470 h1        1 MOL      0.100942
    103 H44        -1.3340   -0.1020   -1.6520 hc        1 MOL      0.025435
    104 H45        -2.0920    1.1180   -3.5850 hc        1 MOL      0.039813
    105 H46        -3.2560   -0.1340   -3.1760 hc        1 MOL      0.039813
    106 H47        -2.6930   -1.8570   -2.0070 hc        1 MOL      0.208489
    107 H48        -1.5960   -2.6290   -3.1880 hc        1 MOL      0.208489
    108 H49        -1.1530   -2.4710   -1.4560 hc        1 MOL      0.208489
    109 H50        -1.2830   -0.0220   -5.5440 hc        1 MOL      0.025620
    110 H51        -2.2790   -1.4060   -5.1650 hc        1 MOL      0.025620
    111 H52        -2.9780    0.2690   -5.5350 hc        1 MOL      0.025620
    112 N10         1.9760   -2.1250   -2.0770 n         1 MOL     -0.497505
    113 C35         2.6940   -2.7570   -0.9490 c3        1 MOL     -0.061404
    114 C36         4.2360   -2.7550   -1.0580 c         1 MOL      0.698851
    115 O17         4.8540   -3.3120   -0.1670 o         1 MOL     -0.600260
    116 C37         2.1120   -4.1720   -0.6670 c3        1 MOL      0.180378
    117 C38         2.4280   -5.2460   -1.7170 c3        1 MOL     -0.553755
    118 O18         0.6750   -4.1190   -0.5970 oh        1 MOL     -0.376451
    119 H53         2.1070   -2.5800   -2.9650 hn        1 MOL      0.256088
    120 H54         2.4830   -2.2500   -0.0030 h1        1 MOL      0.091718
    121 H55         2.3840   -4.5440    0.3280 h1        1 MOL      0.075667
    122 H56         0.6060   -3.5140    0.1350 ho        1 MOL      0.349360
    123 H57         1.7970   -6.1210   -1.5230 hc        1 MOL      0.157787
    124 H58         1.9450   -4.9610   -2.6600 hc        1 MOL      0.157787
    125 H59         3.4780   -5.5200   -1.6930 hc        1 MOL      0.157787
    126 N11         4.8830   -2.2560   -2.1440 n         1 MOL     -0.349158
    127 C39         6.3500   -2.3910   -2.3860 c3        1 MOL      0.029740
    128 C40         7.1620   -1.4670   -1.4790 c         1 MOL      0.489490
    129 O19         7.3800   -0.3150   -1.8880 o         1 MOL     -0.476815
    130 C41         6.7140   -2.1860   -3.8370 c3        1 MOL      0.340080
    131 C42         8.0420   -2.8890   -4.1670 c3        1 MOL     -0.383559
    132 O20         5.8140   -2.9470   -4.6670 oh        1 MOL     -0.672080
    133 H60         4.3980   -1.7180   -2.8490 hn        1 MOL      0.233742
    134 H61         6.6070   -3.4130   -2.0810 h1        1 MOL      0.053508
    135 H62         6.8010   -1.1330   -4.0710 h1        1 MOL      0.015642
    136 H63         6.0710   -2.8910   -5.5950 ho        1 MOL      0.426938
    137 H64         8.9240   -2.6670   -3.5610 hc        1 MOL      0.103448
    138 H65         7.8650   -3.9680   -4.1580 hc        1 MOL      0.103448
    139 H66         8.1870   -2.6950   -5.2240 hc        1 MOL      0.103448
    140 N12         7.4370   -1.9870   -0.2330 n         1 MOL     -0.592553
    141 C43         7.7730   -1.2450    1.0000 c3        1 MOL      0.093091
    142 C44         6.6160   -0.4460    1.4500 c         1 MOL      0.579522
    143 O21         6.1320    0.3990    0.6860 o         1 MOL     -0.562765
    144 C45         9.0870   -0.4570    0.9360 c3        1 MOL     -0.111110
    145 C46        10.2890   -1.1700    0.3220 c3        1 MOL     -0.021444
    146 C47        11.5010   -0.3280    0.3530 c3        1 MOL     -0.041895
    147 C48        11.4530    1.0610   -0.3030 c3        1 MOL     -0.017317
    148 N13        12.4680    1.2100   -1.4470 n4        1 MOL     -0.129724
    149 H67         7.0670   -2.9180   -0.1080 hn        1 MOL      0.348165
    150 H68         8.0040   -2.0200    1.7340 h1        1 MOL      0.093657
    151 H69         9.3640   -0.1010    1.9310 hc        1 MOL      0.059499
    152 H70         8.8410    0.4540    0.3860 hc        1 MOL      0.059499
    153 H71         9.9580   -1.4800   -0.6700 hc        1 MOL      0.032989
    154 H72        10.3980   -2.1220    0.8450 hc        1 MOL      0.032989
    155 H73        12.2400   -0.8960   -0.2140 hc        1 MOL      0.047972
    156 H74        11.7790   -0.1760    1.3990 hc        1 MOL      0.047972
    157 H75        11.6800    1.7780    0.4820 hx        1 MOL      0.093064
    158 H76        10.4880    1.2720   -0.7600 hx        1 MOL      0.093064
    159 H77        12.4100    2.0990   -1.9250 hn        1 MOL      0.174440
    160 H78        13.4280    1.1590   -1.1270 hn        1 MOL      0.174440
    161 H79        12.2740    0.5720   -2.2040 hn        1 MOL      0.174440
    162 N14         6.0860   -0.7000    2.6170 n         1 MOL     -0.704695
    163 C49         4.8640    0.0030    3.2280 c3        1 MOL      0.929307
    164 C50         3.5440   -0.6530    2.8710 c         1 MOL      0.390751
    165 O22         2.7350   -0.0330    2.1650 o         1 MOL     -0.783894
    166 C51         5.2420    0.1990    4.7130 c3        1 MOL     -0.352602
    167 C52         4.2680    1.1630    5.4170 c3        1 MOL     -0.130916
    168 C53         4.3930    1.1950    6.9300 c         1 MOL      0.701781
    169 O23         5.5030    0.8850    7.4700 o         1 MOL     -0.678212
    170 O24         3.4040    1.5430    7.5870 o         1 MOL     -0.678212
    171 H80         6.5830   -1.3320    3.2130 hn        1 MOL      0.275983
    172 H81         4.8130    1.0160    2.8240 h1        1 MOL     -0.173038
    173 H82         6.2500    0.6100    4.8340 hc        1 MOL      0.060808
    174 H83         5.1910   -0.7700    5.2150 hc        1 MOL      0.060808
    175 H84         3.2350    0.9020    5.1570 hc        1 MOL      0.030770
    176 H85         4.4290    2.1800    5.0740 hc        1 MOL      0.030770
    177 N15         3.1510   -1.8680    3.2040 n         1 MOL     -0.260294
    178 C54         4.0000   -2.8450    3.8340 c3        1 MOL     -0.238337
    179 H86         3.9610   -2.7160    4.9150 h1        1 MOL      0.103659
    180 H87         3.6550   -3.8470    3.5750 h1        1 MOL      0.103659
    181 H88         5.0250   -2.7120    3.4880 h1        1 MOL      0.103659
    182 H89         2.2230   -2.1360    2.9020 hn        1 MOL      0.305053
    183 Ca1         1.1790    1.7130    0.9020 Ca        1 MOL      1.786989
    184 O25         1.5260    4.3020    0.4490 oh        1 MOL     -0.799201
    185 H90         0.9060    4.9100    0.8540 ho        1 MOL      0.402977
    186 H91         1.7850    4.7220   -0.3700 ho        1 MOL      0.402977
    187 O26         3.2130    3.2800    2.4670 oh        1 MOL     -0.799201
    188 H92         3.3640    3.7680    3.2770 ho        1 MOL      0.402977
    189 H93         3.8050    3.6790    1.8290 ho        1 MOL      0.402977
    190 O27        -1.1850    3.0040    0.8810 oh        1 MOL     -0.799201
    191 H94        -1.9400    2.7620    0.3400 ho        1 MOL      0.402977
    192 H95        -1.5640    3.4110    1.6560 ho        1 MOL      0.402977
    193 O28         3.7260    1.6360   -0.0150 oh        1 MOL     -0.799201
    194 H96         4.2300    2.1880    0.5770 ho        1 MOL      0.402977
    195 H97         4.2650    0.8530   -0.1310 ho        1 MOL      0.402977
    196 O29         0.5960    2.1650    3.5340 oh        1 MOL     -0.799201
    197 H98         0.5310    1.5940    4.3040 ho        1 MOL      0.402977
    198 H99         0.7880    3.0320    3.8850 ho        1 MOL      0.402977
@<TRIPOS>BOND
     1    1    2 1   
     2    1    4 1   
     3    1    5 1   
     4    1    6 1   
     5    2    3 2   
     6    2    7 1   
     7    7    8 1   
     8    7   15 1   
     9    8    9 1   
    10    8   11 1   
    11    8   16 1   
    12    9   10 2   
    13    9   19 1   
    14   11   12 1   
    15   11   17 1   
    16   11   18 1   
    17   12   13 1   
    18   12   14 1   
    19   19   20 1   
    20   19   28 1   
    21   20   21 1   
    22   20   23 1   
    23   20   29 1   
    24   21   22 2   
    25   21   41 1   
    26   23   24 1   
    27   23   30 1   
    28   23   31 1   
    29   24   25 1   
    30   24   32 1   
    31   24   33 1   
    32   25   26 1   
    33   25   34 1   
    34   25   35 1   
    35   26   27 1   
    36   26   36 1   
    37   26   37 1   
    38   27   38 1   
    39   27   39 1   
    40   27   40 1   
    41   41   42 1   
    42   41   49 1   
    43   42   43 1   
    44   42   45 1   
    45   42   50 1   
    46   43   44 2   
    47   43   53 1   
    48   45   46 1   
    49   45   51 1   
    50   45   52 1   
    51   46   47 1   
    52   46   48 1   
    53   53   54 1   
    54   53   57 1   
    55   54   55 1   
    56   54   58 1   
    57   54   59 1   
    58   55   56 2   
    59   55   60 1   
    60   60   61 1   
    61   60   68 1   
    62   61   62 1   
    63   61   64 1   
    64   61   69 1   
    65   62   63 2   
    66   62   72 1   
    67   64   65 1   
    68   64   70 1   
    69   64   71 1   
    70   65   66 1   
    71   65   67 1   
    72   72   73 1   
    73   72   76 1   
    74   73   74 1   
    75   73   77 1   
    76   73   78 1   
    77   74   75 2   
    78   74   79 1   
    79   79   80 1   
    80   79   86 1   
    81   80   81 1   
    82   80   83 1   
    83   80   87 1   
    84   81   82 2   
    85   81   93 1   
    86   83   84 1   
    87   83   85 1   
    88   83   88 1   
    89   84   90 1   
    90   84   91 1   
    91   84   92 1   
    92   85   89 1   
    93   93   94 1   
    94   93  101 1   
    95   94   95 1   
    96   94   97 1   
    97   94  102 1   
    98   95   96 2   
    99   95  112 1   
   100   97   98 1   
   101   97   99 1   
   102   97  103 1   
   103   98  100 1   
   104   98  104 1   
   105   98  105 1   
   106   99  106 1   
   107   99  107 1   
   108   99  108 1   
   109  100  109 1   
   110  100  110 1   
   111  100  111 1   
   112  112  113 1   
   113  112  119 1   
   114  113  114 1   
   115  113  116 1   
   116  113  120 1   
   117  114  115 2   
   118  114  126 1   
   119  116  117 1   
   120  116  118 1   
   121  116  121 1   
   122  117  123 1   
   123  117  124 1   
   124  117  125 1   
   125  118  122 1   
   126  126  127 1   
   127  126  133 1   
   128  127  128 1   
   129  127  130 1   
   130  127  134 1   
   131  128  129 2   
   132  128  140 1   
   133  130  131 1   
   134  130  132 1   
   135  130  135 1   
   136  131  137 1   
   137  131  138 1   
   138  131  139 1   
   139  132  136 1   
   140  140  141 1   
   141  140  149 1   
   142  141  142 1   
   143  141  144 1   
   144  141  150 1   
   145  142  143 2   
   146  142  162 1   
   147  144  145 1   
   148  144  151 1   
   149  144  152 1   
   150  145  146 1   
   151  145  153 1   
   152  145  154 1   
   153  146  147 1   
   154  146  155 1   
   155  146  156 1   
   156  147  148 1   
   157  147  157 1   
   158  147  158 1   
   159  148  159 1   
   160  148  160 1   
   161  148  161 1   
   162  162  163 1   
   163  162  171 1   
   164  163  164 1   
   165  163  166 1   
   166  163  172 1   
   167  164  165 2   
   168  164  177 1   
   169  166  167 1   
   170  166  173 1   
   171  166  174 1   
   172  167  168 1   
   173  167  175 1   
   174  167  176 1   
   175  168  169 1   
   176  168  170 1   
   177  177  178 1   
   178  177  182 1   
   179  178  179 1   
   180  178  180 1   
   181  178  181 1   
   182  184  185 1   
   183  184  186 1   
   184  187  188 1   
   185  187  189 1   
   186  190  191 1   
   187  190  192 1   
   188  193  194 1   
   189  193  195 1   
   190  196  197 1   
   191  196  198 1   
@<TRIPOS>SUBSTRUCTURE
     1 MOL         1 TEMP              0 ****  ****    0 ROOT
