@<TRIPOS>MOLECULE
MOL
  192   187     1     0     0
SMALL
resp


@<TRIPOS>ATOM
      1 C1         -4.0000    6.7950    2.0830 c3        1 MOL     -0.317985
      2 C2         -3.9990    5.2870    1.8750 c         1 MOL      0.650837
      3 O1         -4.0520    4.4360    2.7830 o         1 MOL     -0.599033
      4 H1         -2.9920    7.1820    1.9360 hc        1 MOL      0.087201
      5 H2         -4.6750    7.2620    1.3660 hc        1 MOL      0.087201
      6 H3         -4.3320    7.0220    3.0970 hc        1 MOL      0.087201
      7 N1         -3.9550    4.8490    0.6130 n         1 MOL     -0.325879
      8 C3         -3.9770    3.4260    0.2910 c3        1 MOL     -0.084005
      9 C4         -2.6220    2.9040   -0.2440 c         1 MOL      0.294399
     10 O2         -2.5050    1.7570   -0.6100 o         1 MOL     -0.402573
     11 C5         -5.0960    2.9890   -0.6750 c3        1 MOL     -0.132903
     12 C6         -5.4540    4.0380   -1.7700 c         1 MOL      0.646835
     13 O3         -6.3520    3.8290   -2.5760 o         1 MOL     -0.654438
     14 O4         -5.0050    5.1960   -1.8430 o         1 MOL     -0.654438
     15 H4         -4.1000    5.4830   -0.1630 hn        1 MOL      0.224354
     16 H5         -4.0390    2.7850    1.1770 h1        1 MOL      0.179637
     17 H6         -5.9650    2.7870   -0.0450 hc        1 MOL      0.056538
     18 H7         -4.8610    2.0330   -1.1290 hc        1 MOL      0.056538
     19 N2         -1.5500    3.6870   -0.0840 n         1 MOL     -0.204506
     20 C7         -0.1250    3.3700   -0.2870 c3        1 MOL      0.245581
     21 C8          0.5890    3.2150    1.0700 c         1 MOL      0.523887
     22 O5          0.3040    4.0600    1.8880 o         1 MOL     -0.544863
     23 C9          0.4120    4.3830   -1.3210 c3        1 MOL     -0.269758
     24 C10        -0.3770    4.5220   -2.6250 c3        1 MOL      0.058768
     25 C11        -0.3680    3.2370   -3.5900 c3        1 MOL     -0.111136
     26 C12        -1.2390    3.3670   -4.9070 c3        1 MOL      0.154447
     27 N3         -1.4530    4.7880   -5.3460 n4        1 MOL     -0.308516
     28 H8         -1.7280    4.5980    0.3130 hn        1 MOL      0.157052
     29 H9         -0.1100    2.3890   -0.7540 h1        1 MOL      0.018117
     30 H10         1.4390    4.0990   -1.5360 hc        1 MOL      0.107650
     31 H11         0.4450    5.3360   -0.7880 hc        1 MOL      0.107650
     32 H12        -0.0690    5.4210   -3.1720 hc        1 MOL     -0.022204
     33 H13        -1.4180    4.6700   -2.3340 hc        1 MOL     -0.022204
     34 H14        -0.7070    2.3860   -3.0000 hc        1 MOL      0.071143
     35 H15         0.7050    3.1840   -3.8110 hc        1 MOL      0.071143
     36 H16        -2.2270    2.9300   -4.7430 hx        1 MOL      0.031653
     37 H17        -0.8120    2.7670   -5.6990 hx        1 MOL      0.031653
     38 H18        -0.6320    5.3140   -5.6280 hn        1 MOL      0.287329
     39 H19        -2.1130    4.9300   -6.0980 hn        1 MOL      0.287329
     40 H20        -1.8220    5.2050   -4.5090 hn        1 MOL      0.287329
     41 N4          1.4650    2.2480    1.3340 n         1 MOL     -0.530655
     42 C13         1.8970    1.1560    0.4940 c3        1 MOL      0.056844
     43 C14         2.4920    1.4380   -0.8740 c         1 MOL      0.607809
     44 O6          1.8730    1.1530   -1.8910 o         1 MOL     -0.612325
     45 C15         0.8540   -0.0450    0.5280 c3        1 MOL     -0.200153
     46 C16         0.2080   -0.2630    1.8690 c         1 MOL      1.134317
     47 O7         -0.9290   -0.7050    2.0180 o         1 MOL     -0.894799
     48 O8          0.8060   -0.0390    2.9260 o         1 MOL     -0.894799
     49 H21         1.7300    2.2120    2.3170 hn        1 MOL      0.332992
     50 H22         2.7400    0.6880    1.0120 h1        1 MOL      0.066422
     51 H23         1.3540   -0.9670    0.2230 hc        1 MOL      0.038552
     52 H24         0.0070    0.3090   -0.0550 hc        1 MOL      0.038552
     53 N5          3.6490    2.0940   -1.0740 n         1 MOL     -0.484451
     54 C17         4.6340    2.4870   -0.1230 c3        1 MOL      0.056217
     55 C18         5.6740    3.4670   -0.6220 c         1 MOL      0.615316
     56 O9          5.4560    4.0840   -1.6590 o         1 MOL     -0.545698
     57 H25         3.8720    2.2910   -2.0370 hn        1 MOL      0.308925
     58 H26         4.9950    1.5420    0.2810 h1        1 MOL      0.022269
     59 H27         4.1180    3.0910    0.6260 h1        1 MOL      0.022269
     60 N6          6.8250    3.7370    0.1860 n         1 MOL     -0.579983
     61 C19         7.2590    3.1390    1.4540 c3        1 MOL      0.091796
     62 C20         8.0760    1.8530    1.2710 c         1 MOL      0.561726
     63 O10         8.5730    1.5060    0.1660 o         1 MOL     -0.473255
     64 C21         8.0590    4.2310    2.1830 c3        1 MOL     -0.158650
     65 C22         9.2900    4.7060    1.4310 c         1 MOL      0.703821
     66 O11         9.1710    5.5720    0.5190 o         1 MOL     -0.661077
     67 O12        10.3740    4.1980    1.7830 o         1 MOL     -0.661077
     68 H28         7.5150    4.3500   -0.2200 hn        1 MOL      0.314396
     69 H29         6.3550    2.8500    1.9770 h1        1 MOL      0.005103
     70 H30         8.2620    3.8290    3.1750 hc        1 MOL      0.013597
     71 H31         7.3930    5.0740    2.3950 hc        1 MOL      0.013597
     72 N7          8.0450    1.0460    2.3140 n         1 MOL     -0.421468
     73 C23         8.5850   -0.3060    2.2610 c3        1 MOL     -0.154567
     74 C24         7.6790   -1.2780    1.4690 c         1 MOL      0.510542
     75 O13         8.1540   -1.8950    0.5330 o         1 MOL     -0.502491
     76 H32         7.4660    1.2980    3.1020 hn        1 MOL      0.268181
     77 H33         8.6720   -0.6850    3.2790 h1        1 MOL      0.127262
     78 H34         9.5990   -0.2870    1.8730 h1        1 MOL      0.127262
     79 N8          6.3850   -1.3290    1.8290 n         1 MOL     -0.525654
     80 C25         5.3760   -2.1990    1.1040 c3        1 MOL      0.032083
     81 C26         5.1860   -1.8660   -0.3830 c         1 MOL      0.654357
     82 O14         5.3600   -0.7340   -0.7760 o         1 MOL     -0.415165
     83 C27         4.0990   -2.0170    1.9420 c3        1 MOL      0.337457
     84 C28         4.2360   -2.5370    3.3650 c3        1 MOL     -0.175188
     85 O15         3.0310   -2.7530    1.3570 oh        1 MOL     -0.791356
     86 H35         6.0980   -0.7650    2.6070 hn        1 MOL      0.303724
     87 H36         5.7140   -3.2300    1.1640 h1        1 MOL      0.061411
     88 H37         3.8520   -0.9520    1.9810 h1        1 MOL      0.036865
     89 H38         3.2520   -3.6840    1.3040 ho        1 MOL      0.429947
     90 H39         4.3180   -3.6280    3.2760 hc        1 MOL      0.036214
     91 H40         5.0910   -2.1270    3.8910 hc        1 MOL      0.036214
     92 H41         3.3030   -2.3590    3.8980 hc        1 MOL      0.036214
     93 N9          4.6650   -2.8010   -1.1730 n         1 MOL     -0.541927
     94 C29         4.2530   -2.5800   -2.5880 c3        1 MOL     -0.226048
     95 C30         2.8710   -3.1850   -2.9120 c         1 MOL      0.675032
     96 O16         2.4950   -3.2280   -4.0560 o         1 MOL     -0.555947
     97 C31         5.4000   -3.1440   -3.5740 c3        1 MOL      0.288929
     98 C32         5.6240   -4.6690   -3.4590 c3        1 MOL     -0.088469
     99 C33         6.6910   -2.3390   -3.2420 c3        1 MOL     -0.303092
    100 C34         6.3710   -5.3110   -4.6100 c3        1 MOL     -0.197351
    101 H42         4.4690   -3.6690   -0.7120 hn        1 MOL      0.215372
    102 H43         4.1740   -1.5060   -2.7550 h1        1 MOL      0.149133
    103 H44         5.0240   -3.0000   -4.5860 hc        1 MOL     -0.021663
    104 H45         4.6810   -5.1870   -3.3010 hc        1 MOL      0.047978
    105 H46         6.2620   -4.7840   -2.5850 hc        1 MOL      0.047978
    106 H47         6.3970   -1.2850   -3.1780 hc        1 MOL      0.089377
    107 H48         7.3340   -2.6560   -2.4260 hc        1 MOL      0.089377
    108 H49         7.1930   -2.4960   -4.1990 hc        1 MOL      0.089377
    109 H50         5.8880   -5.2100   -5.5800 hc        1 MOL      0.053550
    110 H51         7.3420   -4.8140   -4.7200 hc        1 MOL      0.053550
    111 H52         6.4090   -6.3860   -4.4530 hc        1 MOL      0.053550
    112 N10         2.1540   -3.6840   -1.8700 n         1 MOL     -0.632556
    113 C35         0.9030   -4.3460   -2.1100 c3        1 MOL      0.000194
    114 C36        -0.2410   -3.5230   -1.4820 c         1 MOL      0.863146
    115 O17        -0.0260   -3.1020   -0.3640 o         1 MOL     -0.648763
    116 C37         0.9370   -5.7770   -1.6870 c3        1 MOL      0.283600
    117 C38        -0.2110   -6.6590   -2.1840 c3        1 MOL     -0.344209
    118 O18         0.8440   -5.8770   -0.2640 oh        1 MOL     -0.703936
    119 H53         2.5230   -3.5560   -0.9310 hn        1 MOL      0.467421
    120 H54         0.7060   -4.2740   -3.1820 h1        1 MOL      0.072862
    121 H55         1.8770   -6.2140   -2.0130 h1        1 MOL      0.039309
    122 H56         0.4390   -6.7320   -0.0570 ho        1 MOL      0.422257
    123 H57        -0.2880   -6.6620   -3.2640 hc        1 MOL      0.095194
    124 H58        -0.0750   -7.6910   -1.8440 hc        1 MOL      0.095194
    125 H59        -1.1500   -6.2450   -1.7940 hc        1 MOL      0.095194
    126 N11        -1.3280   -3.2300   -2.1890 n         1 MOL     -0.654257
    127 C39        -2.3470   -2.2380   -1.9130 c3        1 MOL      0.142473
    128 C40        -3.7260   -2.8400   -1.9810 c         1 MOL      0.574991
    129 O19        -3.9730   -3.8500   -2.6980 o         1 MOL     -0.572183
    130 C41        -2.1450   -1.1060   -2.9060 c3        1 MOL      0.172364
    131 C42        -0.7500   -0.4940   -3.0980 c3        1 MOL     -0.334451
    132 O20        -2.9910   -0.0110   -2.4820 oh        1 MOL     -0.599262
    133 H60        -1.3270   -3.6770   -3.0960 hn        1 MOL      0.289909
    134 H61        -2.2420   -1.8970   -0.8820 h1        1 MOL      0.076238
    135 H62        -2.5540   -1.4320   -3.8630 h1        1 MOL      0.041593
    136 H63        -2.6140    0.6040   -1.8440 ho        1 MOL      0.356347
    137 H64        -0.7450    0.3790   -3.7510 hc        1 MOL      0.102717
    138 H65        -0.1070   -0.3030   -2.2320 hc        1 MOL      0.102717
    139 H66        -0.1450   -1.2420   -3.6150 hc        1 MOL      0.102717
    140 N12        -4.6570   -2.2060   -1.3360 n         1 MOL     -0.406392
    141 C43        -6.0760   -2.5830   -1.3000 c3        1 MOL     -0.039909
    142 C44        -6.8200   -2.4270   -0.0430 c         1 MOL      0.465891
    143 O21        -7.8900   -3.0120    0.2230 o         1 MOL     -0.551813
    144 C45        -6.8110   -1.6890   -2.3800 c3        1 MOL     -0.284286
    145 C46        -6.9640   -0.2380   -1.9150 c3        1 MOL      0.134220
    146 C47        -7.8200    0.7120   -2.8420 c3        1 MOL     -0.061066
    147 C48        -7.3660    0.9390   -4.2650 c3        1 MOL     -0.019514
    148 N13        -6.2800    1.9690   -4.3740 n4        1 MOL     -0.143188
    149 H67        -4.2980   -1.3670   -0.8970 hn        1 MOL      0.246610
    150 H68        -6.1030   -3.6530   -1.5020 h1        1 MOL      0.143859
    151 H69        -7.7950   -2.1580   -2.4600 hc        1 MOL      0.103524
    152 H70        -6.3300   -1.7860   -3.3430 hc        1 MOL      0.103524
    153 H71        -5.9860    0.1720   -1.6590 hc        1 MOL     -0.032228
    154 H72        -7.3720   -0.2500   -0.9020 hc        1 MOL     -0.032228
    155 H73        -7.8050    1.7050   -2.3810 hc        1 MOL      0.057306
    156 H74        -8.8220    0.2790   -2.7910 hc        1 MOL      0.057306
    157 H75        -8.2720    1.2460   -4.7720 hx        1 MOL      0.070597
    158 H76        -7.1640   -0.0050   -4.7770 hx        1 MOL      0.070597
    159 H77        -6.1060    2.1310   -5.3530 hn        1 MOL      0.234934
    160 H78        -6.5380    2.8860   -4.0170 hn        1 MOL      0.234934
    161 H79        -5.3600    1.6860   -4.0650 hn        1 MOL      0.234934
    162 N14        -6.2350   -1.7060    0.8920 n         1 MOL     -0.127332
    163 C49        -6.8390   -1.3910    2.2600 c3        1 MOL     -0.070959
    164 C50        -7.3030    0.0980    2.2880 c         1 MOL      0.511764
    165 O22        -6.6450    0.9600    1.6970 o         1 MOL     -0.514088
    166 C51        -5.8420   -1.6740    3.4220 c3        1 MOL     -0.225493
    167 C52        -5.1800   -3.1380    3.3650 c3        1 MOL      0.329429
    168 C53        -3.9290   -3.4680    4.2460 c         1 MOL      0.533271
    169 O23        -4.2040   -3.9840    5.3580 o         1 MOL     -0.686281
    170 O24        -2.8190   -3.0920    3.8200 o         1 MOL     -0.686281
    171 H80        -5.2700   -1.4080    0.8020 hn        1 MOL      0.231973
    172 H81        -7.8360   -1.8230    2.3710 h1        1 MOL      0.063416
    173 H82        -6.4480   -1.6710    4.3290 hc        1 MOL      0.047903
    174 H83        -5.0310   -0.9550    3.5330 hc        1 MOL      0.047903
    175 H84        -4.8060   -3.2600    2.3440 hc        1 MOL     -0.092696
    176 H85        -5.9070   -3.9330    3.4120 hc        1 MOL     -0.092696
    177 N15        -8.3420    0.3290    3.0430 n         1 MOL     -0.327543
    178 C54        -9.2300    1.4720    2.9280 c3        1 MOL     -0.163018
    179 H86       -10.2170    1.2030    3.3030 h1        1 MOL      0.097762
    180 H87        -8.8320    2.3020    3.5140 h1        1 MOL      0.097762
    181 H88        -9.3060    1.7690    1.8820 h1        1 MOL      0.097762
    182 H89        -8.6500   -0.4330    3.6350 hn        1 MOL      0.296492
    183 Ca1        -0.4920   -1.9610    4.2400 Ca        1 MOL      1.793092
    184 O25        -1.9110    0.3460    5.0590 oh        1 MOL     -0.947281
    185 H90        -2.5260    0.4250    5.7820 ho        1 MOL      0.465015
    186 H91        -2.0020    1.1700    4.5740 ho        1 MOL      0.465015
    187 O26        -1.1350   -1.7100    6.9900 oh        1 MOL     -0.947281
    188 H92        -0.5610   -1.5740    7.7450 ho        1 MOL      0.465015
    189 H93        -1.9830   -1.3720    7.2830 ho        1 MOL      0.465015
    190 O27         0.2940   -3.8790    2.6240 oh        1 MOL     -0.947281
    191 H94         0.6100   -3.8210    1.7190 ho        1 MOL      0.465015
    192 H95         0.5110   -4.7790    2.8890 ho        1 MOL      0.465015
@<TRIPOS>BOND
     1    1    2 1   
     2    1    4 1   
     3    1    5 1   
     4    1    6 1   
     5    2    3 2   
     6    2    7 1   
     7    7    8 1   
     8    7   15 1   
     9    8    9 1   
    10    8   11 1   
    11    8   16 1   
    12    9   10 2   
    13    9   19 1   
    14   11   12 1   
    15   11   17 1   
    16   11   18 1   
    17   12   13 1   
    18   12   14 1   
    19   19   20 1   
    20   19   28 1   
    21   20   21 1   
    22   20   23 1   
    23   20   29 1   
    24   21   22 2   
    25   21   41 1   
    26   23   24 1   
    27   23   30 1   
    28   23   31 1   
    29   24   25 1   
    30   24   32 1   
    31   24   33 1   
    32   25   26 1   
    33   25   34 1   
    34   25   35 1   
    35   26   27 1   
    36   26   36 1   
    37   26   37 1   
    38   27   38 1   
    39   27   39 1   
    40   27   40 1   
    41   41   42 1   
    42   41   49 1   
    43   42   43 1   
    44   42   45 1   
    45   42   50 1   
    46   43   44 2   
    47   43   53 1   
    48   45   46 1   
    49   45   51 1   
    50   45   52 1   
    51   46   47 1   
    52   46   48 1   
    53   53   54 1   
    54   53   57 1   
    55   54   55 1   
    56   54   58 1   
    57   54   59 1   
    58   55   56 2   
    59   55   60 1   
    60   60   61 1   
    61   60   68 1   
    62   61   62 1   
    63   61   64 1   
    64   61   69 1   
    65   62   63 2   
    66   62   72 1   
    67   64   65 1   
    68   64   70 1   
    69   64   71 1   
    70   65   66 1   
    71   65   67 1   
    72   72   73 1   
    73   72   76 1   
    74   73   74 1   
    75   73   77 1   
    76   73   78 1   
    77   74   75 2   
    78   74   79 1   
    79   79   80 1   
    80   79   86 1   
    81   80   81 1   
    82   80   83 1   
    83   80   87 1   
    84   81   82 2   
    85   81   93 1   
    86   83   84 1   
    87   83   85 1   
    88   83   88 1   
    89   84   90 1   
    90   84   91 1   
    91   84   92 1   
    92   85   89 1   
    93   93   94 1   
    94   93  101 1   
    95   94   95 1   
    96   94   97 1   
    97   94  102 1   
    98   95   96 2   
    99   95  112 1   
   100   97   98 1   
   101   97   99 1   
   102   97  103 1   
   103   98  100 1   
   104   98  104 1   
   105   98  105 1   
   106   99  106 1   
   107   99  107 1   
   108   99  108 1   
   109  100  109 1   
   110  100  110 1   
   111  100  111 1   
   112  112  113 1   
   113  112  119 1   
   114  113  114 1   
   115  113  116 1   
   116  113  120 1   
   117  114  115 2   
   118  114  126 1   
   119  116  117 1   
   120  116  118 1   
   121  116  121 1   
   122  117  123 1   
   123  117  124 1   
   124  117  125 1   
   125  118  122 1   
   126  126  127 1   
   127  126  133 1   
   128  127  128 1   
   129  127  130 1   
   130  127  134 1   
   131  128  129 2   
   132  128  140 1   
   133  130  131 1   
   134  130  132 1   
   135  130  135 1   
   136  131  137 1   
   137  131  138 1   
   138  131  139 1   
   139  132  136 1   
   140  140  141 1   
   141  140  149 1   
   142  141  142 1   
   143  141  144 1   
   144  141  150 1   
   145  142  143 2   
   146  142  162 1   
   147  144  145 1   
   148  144  151 1   
   149  144  152 1   
   150  145  146 1   
   151  145  153 1   
   152  145  154 1   
   153  146  147 1   
   154  146  155 1   
   155  146  156 1   
   156  147  148 1   
   157  147  157 1   
   158  147  158 1   
   159  148  159 1   
   160  148  160 1   
   161  148  161 1   
   162  162  163 1   
   163  162  171 1   
   164  163  164 1   
   165  163  166 1   
   166  163  172 1   
   167  164  165 2   
   168  164  177 1   
   169  166  167 1   
   170  166  173 1   
   171  166  174 1   
   172  167  168 1   
   173  167  175 1   
   174  167  176 1   
   175  168  169 1   
   176  168  170 1   
   177  177  178 1   
   178  177  182 1   
   179  178  179 1   
   180  178  180 1   
   181  178  181 1   
   182  184  185 1   
   183  184  186 1   
   184  187  188 1   
   185  187  189 1   
   186  190  191 1   
   187  190  192 1   
@<TRIPOS>SUBSTRUCTURE
     1 MOL         1 TEMP              0 ****  ****    0 ROOT
