@<TRIPOS>MOLECULE
MOL
  201   193     1     0     0
SMALL
resp


@<TRIPOS>ATOM
      1 C1         -3.1450    6.1130    1.5600 c3        1 MOL     -0.370285
      2 C2         -4.5950    5.8170    1.2630 c         1 MOL      0.713482
      3 O1         -5.0040    6.1130    0.1300 o         1 MOL     -0.573442
      4 H1         -3.0770    6.7460    2.4450 hc        1 MOL      0.097006
      5 H2         -2.6130    5.1780    1.7420 hc        1 MOL      0.097006
      6 H3         -2.6960    6.6270    0.7100 hc        1 MOL      0.097006
      7 N1         -5.4150    5.1250    2.1100 n         1 MOL     -0.753257
      8 C3         -6.8720    4.8240    1.7840 c3        1 MOL      0.521881
      9 C4         -7.0530    3.8080    0.6130 c         1 MOL      0.268462
     10 O2         -6.1250    3.5800   -0.1680 o         1 MOL     -0.430665
     11 C5         -7.6200    6.1420    1.6760 c3        1 MOL     -0.268226
     12 C6         -9.0300    6.1590    2.1130 c         1 MOL      0.702212
     13 O3         -9.5670    7.3040    2.1240 o         1 MOL     -0.715486
     14 O4         -9.5620    5.0530    2.2810 o         1 MOL     -0.715486
     15 H4         -5.1020    4.6940    2.9660 hn        1 MOL      0.338528
     16 H5         -7.1560    4.2980    2.6980 h1        1 MOL     -0.048120
     17 H6         -7.5630    6.3580    0.6120 hc        1 MOL      0.059333
     18 H7         -7.0140    6.8670    2.2110 hc        1 MOL      0.059333
     19 N2         -8.2790    3.3060    0.4150 n         1 MOL     -0.302021
     20 C7         -8.8890    2.5140   -0.6800 c3        1 MOL      0.016173
     21 C8         -8.0980    1.3480   -1.2230 c         1 MOL      0.515770
     22 O5         -8.4970    0.7290   -2.1990 o         1 MOL     -0.556194
     23 C9         -9.2930    3.5390   -1.7780 c3        1 MOL     -0.039735
     24 C10       -10.6400    4.2410   -1.4150 c3        1 MOL     -0.078390
     25 C11       -10.8480    5.6460   -1.9970 c3        1 MOL     -0.075546
     26 C12       -11.5700    5.5200   -3.3350 c3        1 MOL      0.071769
     27 N3        -11.9960    6.7760   -4.0570 n4        1 MOL     -0.418100
     28 H8         -8.8730    3.6420    1.1500 hn        1 MOL      0.184899
     29 H9         -9.8260    2.0660   -0.3650 h1        1 MOL      0.098961
     30 H10        -9.4070    3.2560   -2.8230 hc        1 MOL      0.047699
     31 H11        -8.4980    4.2670   -1.8370 hc        1 MOL      0.047699
     32 H12       -10.5590    4.3800   -0.3350 hc        1 MOL      0.042892
     33 H13       -11.5150    3.6270   -1.6110 hc        1 MOL      0.042892
     34 H14        -9.8910    6.1610   -2.0630 hc        1 MOL      0.083378
     35 H15       -11.4270    6.2730   -1.3220 hc        1 MOL      0.083378
     36 H16       -12.5170    5.0090   -3.1470 hx        1 MOL      0.059236
     37 H17       -11.0310    4.8650   -4.0080 hx        1 MOL      0.059236
     38 H18       -12.5730    6.4970   -4.8360 hn        1 MOL      0.339087
     39 H19       -12.5890    7.3300   -3.4550 hn        1 MOL      0.339087
     40 H20       -11.2530    7.3390   -4.4550 hn        1 MOL      0.339087
     41 N4         -7.2040    0.9180   -0.3550 n         1 MOL     -0.554585
     42 C13        -6.2920   -0.1970   -0.5440 c3        1 MOL      0.412004
     43 C14        -5.8550   -0.8980    0.7570 c         1 MOL      0.342406
     44 O6         -5.1540   -0.3190    1.5990 o         1 MOL     -0.524414
     45 C15        -5.0800    0.2160   -1.3860 c3        1 MOL     -0.058067
     46 C16        -4.0410   -0.8690   -1.7740 c         1 MOL      0.467879
     47 O7         -4.3710   -2.0790   -1.7410 o         1 MOL     -0.616836
     48 O8         -2.9000   -0.4960   -2.1210 o         1 MOL     -0.616836
     49 H21        -7.1920    1.3020    0.5800 hn        1 MOL      0.268641
     50 H22        -6.7610   -0.9560   -1.1620 h1        1 MOL     -0.031323
     51 H23        -4.5780    1.0680   -0.9440 hc        1 MOL      0.029963
     52 H24        -5.4270    0.6830   -2.3180 hc        1 MOL      0.029963
     53 N5         -6.3380   -2.1090    0.9440 n         1 MOL     -0.220417
     54 C17        -7.2840   -2.9950    0.2770 c3        1 MOL     -0.195898
     55 C18        -6.6980   -4.4280    0.1640 c         1 MOL      0.620353
     56 O9         -7.3390   -5.3770    0.5580 o         1 MOL     -0.559862
     57 H25        -6.1450   -2.3950    1.8980 hn        1 MOL      0.232980
     58 H26        -7.5040   -2.6140   -0.7140 h1        1 MOL      0.105560
     59 H27        -8.2050   -3.0100    0.8630 h1        1 MOL      0.105560
     60 N6         -5.3490   -4.5090   -0.1270 n         1 MOL     -0.284316
     61 C19        -4.5970   -5.7200   -0.2010 c3        1 MOL      0.190896
     62 C20        -3.1350   -5.3300    0.0630 c         1 MOL      0.140945
     63 O10        -2.7880   -4.2420   -0.4060 o         1 MOL     -0.357243
     64 C21        -4.8200   -6.5490   -1.4800 c3        1 MOL      0.074042
     65 C22        -4.8630   -5.8030   -2.8150 c         1 MOL      0.535329
     66 O11        -5.7150   -6.0000   -3.6710 o         1 MOL     -0.645743
     67 O12        -4.0750   -4.8270   -3.0360 o         1 MOL     -0.645743
     68 H28        -4.8750   -3.6700   -0.4390 hn        1 MOL      0.089188
     69 H29        -4.9320   -6.3750    0.6130 h1        1 MOL     -0.015436
     70 H30        -5.7370   -7.1090   -1.2850 hc        1 MOL     -0.029878
     71 H31        -4.0850   -7.3600   -1.4720 hc        1 MOL     -0.029878
     72 N7         -2.3190   -6.2320    0.6770 n         1 MOL     -0.259572
     73 C23        -0.8700   -5.9140    0.7370 c3        1 MOL     -0.198615
     74 C24        -0.4700   -4.9780    1.8130 c         1 MOL      0.662802
     75 O13         0.7150   -5.0000    2.1690 o         1 MOL     -0.590416
     76 H32        -2.6870   -7.1460    0.9120 hn        1 MOL      0.291497
     77 H33        -0.5460   -5.4010   -0.1710 h1        1 MOL      0.113974
     78 H34        -0.3530   -6.8510    0.9560 h1        1 MOL      0.113974
     79 N8         -1.2740   -4.0100    2.2740 n         1 MOL     -0.570613
     80 C25        -0.9450   -3.1000    3.3630 c3        1 MOL     -0.006326
     81 C26        -0.5150   -1.7280    2.8340 c         1 MOL      0.619445
     82 O14        -1.0010   -1.3080    1.7760 o         1 MOL     -0.478745
     83 C27        -1.9910   -2.9940    4.4860 c3        1 MOL      0.371074
     84 C28        -3.2010   -2.1210    4.1580 c3        1 MOL     -0.361484
     85 O15        -2.5160   -4.2890    4.8180 oh        1 MOL     -0.601583
     86 H35        -2.2470   -3.9770    2.0260 hn        1 MOL      0.325374
     87 H36        -0.0740   -3.5080    3.8840 h1        1 MOL      0.058485
     88 H37        -1.4810   -2.5480    5.3340 h1        1 MOL     -0.031839
     89 H38        -1.8370   -4.8160    5.2470 ho        1 MOL      0.385367
     90 H39        -2.9720   -1.0520    4.1330 hc        1 MOL      0.109891
     91 H40        -3.5490   -2.3430    3.1460 hc        1 MOL      0.109891
     92 H41        -4.0350   -2.4020    4.7940 hc        1 MOL      0.109891
     93 N9          0.4170   -1.0700    3.5550 n         1 MOL     -0.494673
     94 C29         0.9190    0.3130    3.2540 c3        1 MOL     -0.292647
     95 C30         1.8960    0.3750    2.1030 c         1 MOL      0.586095
     96 O16         1.6970    1.2000    1.2020 o         1 MOL     -0.528660
     97 C31         1.4750    0.8910    4.6350 c3        1 MOL      0.025542
     98 C32         0.3400    1.1330    5.7440 c3        1 MOL      0.057274
     99 C33         2.0820    2.2260    4.2870 c3        1 MOL     -0.205523
    100 C34         0.8370    1.7350    6.9920 c3        1 MOL     -0.163560
    101 H42         0.8800   -1.5800    4.2880 hn        1 MOL      0.291628
    102 H43         0.0570    0.9230    2.9730 h1        1 MOL      0.191172
    103 H44         2.2110    0.1620    4.9950 hc        1 MOL      0.048676
    104 H45        -0.0990    0.1670    5.9990 hc        1 MOL      0.028105
    105 H46        -0.4920    1.7850    5.4580 hc        1 MOL      0.028105
    106 H47         1.5440    2.7300    3.4840 hc        1 MOL      0.073205
    107 H48         2.1760    2.9800    5.0640 hc        1 MOL      0.073205
    108 H49         3.1290    2.1290    3.9960 hc        1 MOL      0.073205
    109 H50         1.8340    1.3540    7.2060 hc        1 MOL      0.039299
    110 H51         0.9670    2.7990    6.8360 hc        1 MOL      0.039299
    111 H52         0.1680    1.4930    7.8220 hc        1 MOL      0.039299
    112 N10         2.7050   -0.6410    2.0660 n         1 MOL     -0.291742
    113 C35         3.7240   -0.9710    1.0460 c3        1 MOL     -0.302250
    114 C36         4.9300   -1.6690    1.6560 c         1 MOL      0.743121
    115 O17         4.8340   -2.2020    2.7250 o         1 MOL     -0.528679
    116 C37         3.1510   -1.8530   -0.1280 c3        1 MOL      0.266206
    117 C38         2.3340   -3.0630    0.2120 c3        1 MOL     -0.157565
    118 O18         2.3650   -1.0730   -0.9740 oh        1 MOL     -0.609081
    119 H53         2.4990   -1.3360    2.7690 hn        1 MOL      0.253818
    120 H54         4.1050   -0.0280    0.6390 h1        1 MOL      0.143077
    121 H55         3.9600   -2.3390   -0.6680 h1        1 MOL      0.050085
    122 H56         1.8940   -0.4750   -0.3930 ho        1 MOL      0.422219
    123 H57         2.1090   -3.6390   -0.6850 hc        1 MOL      0.047782
    124 H58         3.0080   -3.6600    0.8220 hc        1 MOL      0.047782
    125 H59         1.4710   -2.7740    0.8120 hc        1 MOL      0.047782
    126 N11         6.1100   -1.6120    0.9730 n         1 MOL     -0.604624
    127 C39         7.3530   -2.2060    1.4990 c3        1 MOL     -0.008040
    128 C40         8.5200   -1.2270    1.4190 c         1 MOL      0.630907
    129 O19         9.2780   -1.0470    2.3280 o         1 MOL     -0.554625
    130 C41         7.6380   -3.6090    0.8910 c3        1 MOL      0.277074
    131 C42         8.7890   -4.3740    1.4530 c3        1 MOL     -0.410591
    132 O20         7.7480   -3.4690   -0.5650 oh        1 MOL     -0.594177
    133 H60         6.0940   -1.2060    0.0520 hn        1 MOL      0.312926
    134 H61         7.2080   -2.5200    2.5400 h1        1 MOL      0.089578
    135 H62         6.7660   -4.2080    1.1490 h1        1 MOL      0.088922
    136 H63         8.6760   -3.2230   -0.6410 ho        1 MOL      0.357222
    137 H64         9.0330   -5.1410    0.7070 hc        1 MOL      0.113837
    138 H65         9.6830   -3.7560    1.5340 hc        1 MOL      0.113837
    139 H66         8.5900   -4.8250    2.4240 hc        1 MOL      0.113837
    140 N12         8.6710   -0.4980    0.2910 n         1 MOL     -0.467931
    141 C43         9.7550    0.4810    0.0000 c3        1 MOL     -0.048051
    142 C44         9.2510    1.6410   -0.8740 c         1 MOL      0.532579
    143 O21         8.5320    1.3100   -1.8790 o         1 MOL     -0.507736
    144 C45        10.9600   -0.2020   -0.5900 c3        1 MOL     -0.118470
    145 C46        12.0910    0.7140   -0.8340 c3        1 MOL     -0.016444
    146 C47        13.3580    0.0490   -1.3350 c3        1 MOL      0.131393
    147 C48        13.2960   -0.8280   -2.6200 c3        1 MOL      0.093832
    148 N13        14.5510   -1.5560   -2.8400 n4        1 MOL     -0.376004
    149 H67         8.0100   -0.6600   -0.4550 hn        1 MOL      0.259850
    150 H68         9.9850    0.9410    0.9660 h1        1 MOL      0.125777
    151 H69        10.6760   -0.7230   -1.5040 hc        1 MOL      0.043922
    152 H70        11.3240   -0.9290    0.1380 hc        1 MOL      0.043922
    153 H71        12.3400    1.1320    0.1420 hc        1 MOL      0.040301
    154 H72        11.8160    1.4850   -1.5490 hc        1 MOL      0.040301
    155 H73        13.7620   -0.6500   -0.6100 hc        1 MOL     -0.023652
    156 H74        14.0540    0.8640   -1.5370 hc        1 MOL     -0.023652
    157 H75        12.9820   -0.2270   -3.4620 hx        1 MOL      0.054681
    158 H76        12.4970   -1.5260   -2.3860 hx        1 MOL      0.054681
    159 H77        14.4120   -2.1010   -3.6870 hn        1 MOL      0.279621
    160 H78        15.3250   -0.9290   -3.0030 hn        1 MOL      0.279621
    161 H79        14.7390   -2.1440   -2.0480 hn        1 MOL      0.279621
    162 N14         9.4690    2.8820   -0.5240 n         1 MOL     -0.384635
    163 C49         9.3730    4.0060   -1.4730 c3        1 MOL     -0.035755
    164 C50         7.8930    4.2350   -1.7890 c         1 MOL      0.352073
    165 O22         7.5390    4.3660   -2.9770 o         1 MOL     -0.529612
    166 C51        10.0070    5.3590   -0.9440 c3        1 MOL      0.009552
    167 C52         9.7200    6.5520   -1.8870 c3        1 MOL     -0.171776
    168 C53        10.6230    7.8110   -1.5780 c         1 MOL      0.654686
    169 O23        10.5770    8.7590   -2.3990 o         1 MOL     -0.632679
    170 O24        11.4190    7.7730   -0.6410 o         1 MOL     -0.632679
    171 H80        10.0120    3.0500    0.3120 hn        1 MOL      0.248866
    172 H81         9.9490    3.7600   -2.3660 h1        1 MOL      0.114559
    173 H82        11.0920    5.3100   -0.8300 hc        1 MOL      0.021657
    174 H83         9.7910    5.6300    0.0900 hc        1 MOL      0.021657
    175 H84         8.6890    6.8940   -1.8060 hc        1 MOL      0.060993
    176 H85         9.8580    6.3420   -2.9480 hc        1 MOL      0.060993
    177 N15         6.9370    4.1900   -0.9010 n         1 MOL     -0.228120
    178 C54         6.9760    4.3320    0.5720 c3        1 MOL     -0.142589
    179 H86         7.3520    3.4110    1.0170 h1        1 MOL      0.080338
    180 H87         7.6340    5.1590    0.8400 h1        1 MOL      0.080338
    181 H88         5.9710    4.5310    0.9450 h1        1 MOL      0.080338
    182 H89         6.0630    3.9830   -1.3580 hn        1 MOL      0.268972
    183 Ca1        -2.2010   -3.1610   -2.8260 Ca        1 MOL      1.718285
    184 O25        -0.8680   -1.2920   -4.2270 oh        1 MOL     -0.823412
    185 H90        -1.4280   -0.6270   -4.6390 ho        1 MOL      0.405576
    186 H91        -0.1640   -1.4330   -4.8500 ho        1 MOL      0.405576
    187 O26        -1.1640   -3.8310   -5.2890 oh        1 MOL     -0.823412
    188 H92        -0.8910   -3.3250   -6.0620 ho        1 MOL      0.405576
    189 H93        -0.8360   -4.7160   -5.4590 ho        1 MOL      0.405576
    190 O27         0.7100   -3.3040   -2.5910 oh        1 MOL     -0.823412
    191 H94         0.8520   -2.4100   -2.2820 ho        1 MOL      0.405576
    192 H95         1.5840   -3.6990   -2.5870 ho        1 MOL      0.405576
    193 O28        -1.2190   -5.7950   -2.9500 oh        1 MOL     -0.823412
    194 H96        -1.5400   -6.4710   -3.5370 ho        1 MOL      0.405576
    195 H97        -0.3920   -6.1420   -2.6190 ho        1 MOL      0.405576
    196 O29        -0.8020   -1.7330   -0.7500 oh        1 MOL     -0.823412
    197 H98        -1.0350   -1.9910    0.1410 ho        1 MOL      0.405576
    198 H99        -0.7370   -0.7810   -0.7210 ho        1 MOL      0.405576
    199 O30        -3.8600   -1.8520   -4.5460 oh        1 MOL     -0.823412
    200 H100       -4.2830   -1.0000   -4.4420 ho        1 MOL      0.405576
    201 H101       -4.2980   -2.2440   -5.3040 ho        1 MOL      0.405576
@<TRIPOS>BOND
     1    1    2 1   
     2    1    4 1   
     3    1    5 1   
     4    1    6 1   
     5    2    3 2   
     6    2    7 1   
     7    7    8 1   
     8    7   15 1   
     9    8    9 1   
    10    8   11 1   
    11    8   16 1   
    12    9   10 2   
    13    9   19 1   
    14   11   12 1   
    15   11   17 1   
    16   11   18 1   
    17   12   13 1   
    18   12   14 1   
    19   19   20 1   
    20   19   28 1   
    21   20   21 1   
    22   20   23 1   
    23   20   29 1   
    24   21   22 2   
    25   21   41 1   
    26   23   24 1   
    27   23   30 1   
    28   23   31 1   
    29   24   25 1   
    30   24   32 1   
    31   24   33 1   
    32   25   26 1   
    33   25   34 1   
    34   25   35 1   
    35   26   27 1   
    36   26   36 1   
    37   26   37 1   
    38   27   38 1   
    39   27   39 1   
    40   27   40 1   
    41   41   42 1   
    42   41   49 1   
    43   42   43 1   
    44   42   45 1   
    45   42   50 1   
    46   43   44 2   
    47   43   53 1   
    48   45   46 1   
    49   45   51 1   
    50   45   52 1   
    51   46   47 1   
    52   46   48 1   
    53   53   54 1   
    54   53   57 1   
    55   54   55 1   
    56   54   58 1   
    57   54   59 1   
    58   55   56 2   
    59   55   60 1   
    60   60   61 1   
    61   60   68 1   
    62   61   62 1   
    63   61   64 1   
    64   61   69 1   
    65   62   63 2   
    66   62   72 1   
    67   64   65 1   
    68   64   70 1   
    69   64   71 1   
    70   65   66 1   
    71   65   67 1   
    72   72   73 1   
    73   72   76 1   
    74   73   74 1   
    75   73   77 1   
    76   73   78 1   
    77   74   75 2   
    78   74   79 1   
    79   79   80 1   
    80   79   86 1   
    81   80   81 1   
    82   80   83 1   
    83   80   87 1   
    84   81   82 2   
    85   81   93 1   
    86   83   84 1   
    87   83   85 1   
    88   83   88 1   
    89   84   90 1   
    90   84   91 1   
    91   84   92 1   
    92   85   89 1   
    93   93   94 1   
    94   93  101 1   
    95   94   95 1   
    96   94   97 1   
    97   94  102 1   
    98   95   96 2   
    99   95  112 1   
   100   97   98 1   
   101   97   99 1   
   102   97  103 1   
   103   98  100 1   
   104   98  104 1   
   105   98  105 1   
   106   99  106 1   
   107   99  107 1   
   108   99  108 1   
   109  100  109 1   
   110  100  110 1   
   111  100  111 1   
   112  112  113 1   
   113  112  119 1   
   114  113  114 1   
   115  113  116 1   
   116  113  120 1   
   117  114  115 2   
   118  114  126 1   
   119  116  117 1   
   120  116  118 1   
   121  116  121 1   
   122  117  123 1   
   123  117  124 1   
   124  117  125 1   
   125  118  122 1   
   126  126  127 1   
   127  126  133 1   
   128  127  128 1   
   129  127  130 1   
   130  127  134 1   
   131  128  129 2   
   132  128  140 1   
   133  130  131 1   
   134  130  132 1   
   135  130  135 1   
   136  131  137 1   
   137  131  138 1   
   138  131  139 1   
   139  132  136 1   
   140  140  141 1   
   141  140  149 1   
   142  141  142 1   
   143  141  144 1   
   144  141  150 1   
   145  142  143 2   
   146  142  162 1   
   147  144  145 1   
   148  144  151 1   
   149  144  152 1   
   150  145  146 1   
   151  145  153 1   
   152  145  154 1   
   153  146  147 1   
   154  146  155 1   
   155  146  156 1   
   156  147  148 1   
   157  147  157 1   
   158  147  158 1   
   159  148  159 1   
   160  148  160 1   
   161  148  161 1   
   162  162  163 1   
   163  162  171 1   
   164  163  164 1   
   165  163  166 1   
   166  163  172 1   
   167  164  165 2   
   168  164  177 1   
   169  166  167 1   
   170  166  173 1   
   171  166  174 1   
   172  167  168 1   
   173  167  175 1   
   174  167  176 1   
   175  168  169 1   
   176  168  170 1   
   177  177  178 1   
   178  177  182 1   
   179  178  179 1   
   180  178  180 1   
   181  178  181 1   
   182  184  185 1   
   183  184  186 1   
   184  187  188 1   
   185  187  189 1   
   186  190  191 1   
   187  190  192 1   
   188  193  194 1   
   189  193  195 1   
   190  196  197 1   
   191  196  198 1   
   192  199  200 1   
   193  199  201 1   
@<TRIPOS>SUBSTRUCTURE
     1 MOL         1 TEMP              0 ****  ****    0 ROOT
