@<TRIPOS>MOLECULE
MOL
  192   187     1     0     0
SMALL
resp


@<TRIPOS>ATOM
      1 C1         -3.8550    6.9950    2.7570 c3        1 MOL     -0.287700
      2 C2         -4.1070    5.4830    2.5990 c         1 MOL      0.687584
      3 O1         -4.2620    4.8170    3.6280 o         1 MOL     -0.586316
      4 H1         -3.7690    7.2400    3.8160 hc        1 MOL      0.065473
      5 H2         -2.9300    7.2650    2.2470 hc        1 MOL      0.065473
      6 H3         -4.6860    7.5500    2.3220 hc        1 MOL      0.065473
      7 N1         -4.0320    4.9470    1.3730 n         1 MOL     -0.524553
      8 C3         -3.9380    3.5510    1.0600 c3        1 MOL      0.192044
      9 C4         -2.6380    3.2730    0.2910 c         1 MOL      0.448350
     10 O2         -2.4090    2.2060   -0.2700 o         1 MOL     -0.521155
     11 C5         -5.2220    3.0100    0.4180 c3        1 MOL     -0.241369
     12 C6         -5.4690    3.7610   -0.9240 c         1 MOL      0.671770
     13 O3         -5.5920    3.1370   -2.0130 o         1 MOL     -0.702222
     14 O4         -5.5990    5.0020   -0.8530 o         1 MOL     -0.702222
     15 H4         -4.2060    5.5970    0.6190 hn        1 MOL      0.283669
     16 H5         -3.8220    2.9970    1.9900 h1        1 MOL      0.063630
     17 H6         -6.1210    3.1040    1.0240 hc        1 MOL      0.071114
     18 H7         -5.0720    1.9500    0.2250 hc        1 MOL      0.071114
     19 N2         -1.6450    4.2020    0.4000 n         1 MOL     -0.383979
     20 C7         -0.2440    4.1570   -0.1490 c3        1 MOL      0.300815
     21 C8          0.8020    4.2580    1.0020 c         1 MOL      0.399446
     22 O5          0.6180    5.1800    1.8210 o         1 MOL     -0.535826
     23 C9          0.0470    5.2430   -1.1940 c3        1 MOL      0.042517
     24 C10        -0.6920    5.2560   -2.5470 c3        1 MOL      0.025897
     25 C11        -0.3260    6.4270   -3.4430 c3        1 MOL     -0.086894
     26 C12         1.1180    6.4220   -3.7880 c3        1 MOL      0.181852
     27 N3          1.4980    7.5280   -4.6810 n4        1 MOL     -0.517083
     28 H8         -1.8610    5.0300    0.9320 hn        1 MOL      0.213847
     29 H9         -0.0480    3.2200   -0.6750 h1        1 MOL     -0.025910
     30 H10         1.1280    5.2080   -1.3670 hc        1 MOL     -0.035704
     31 H11        -0.1910    6.1790   -0.6880 hc        1 MOL     -0.035704
     32 H12        -1.7540    5.3170   -2.2940 hc        1 MOL      0.024088
     33 H13        -0.4600    4.3210   -3.0620 hc        1 MOL      0.024088
     34 H14        -0.5590    7.3930   -2.9860 hc        1 MOL      0.028197
     35 H15        -0.8160    6.3290   -4.4090 hc        1 MOL      0.028197
     36 H16         1.4130    5.4310   -4.1440 hx        1 MOL      0.053044
     37 H17         1.6870    6.3990   -2.8530 hx        1 MOL      0.053044
     38 H18         2.4620    7.4180   -4.9440 hn        1 MOL      0.346377
     39 H19         0.8770    7.5210   -5.4790 hn        1 MOL      0.346377
     40 H20         1.3760    8.3960   -4.1740 hn        1 MOL      0.346377
     41 N4          1.7940    3.3700    1.1870 n         1 MOL     -0.392982
     42 C13         2.2180    2.2690    0.3430 c3        1 MOL      0.021730
     43 C14         2.4910    2.5920   -1.1710 c         1 MOL      0.248401
     44 O6          1.6870    2.4120   -2.0640 o         1 MOL     -0.467186
     45 C15         1.5190    0.9630    0.4630 c3        1 MOL      0.235153
     46 C16         1.3450    0.5460    1.8830 c         1 MOL      0.521236
     47 O7          2.0670   -0.3420    2.3010 o         1 MOL     -0.715903
     48 O8          0.4610    1.0350    2.6380 o         1 MOL     -0.715903
     49 H21         2.2570    3.5260    2.0700 hn        1 MOL      0.295045
     50 H22         3.1470    1.9590    0.8210 h1        1 MOL      0.097540
     51 H23         2.2460    0.2620    0.0570 hc        1 MOL     -0.009962
     52 H24         0.6190    0.9480   -0.1610 hc        1 MOL     -0.009962
     53 N5          3.6400    3.1680   -1.4640 n         1 MOL     -0.158077
     54 C17         4.7720    3.4770   -0.6200 c3        1 MOL      0.063401
     55 C18         6.0690    3.8770   -1.3910 c         1 MOL      0.511004
     56 O9          6.0940    4.3480   -2.5590 o         1 MOL     -0.579561
     57 H25         3.8330    3.4760   -2.4090 hn        1 MOL      0.197983
     58 H26         4.9520    2.7440    0.1650 h1        1 MOL     -0.004906
     59 H27         4.4880    4.3920   -0.0830 h1        1 MOL     -0.004906
     60 N6          7.2350    3.7470   -0.8180 n         1 MOL     -0.367137
     61 C19         7.7440    3.0190    0.3400 c3        1 MOL     -0.162984
     62 C20         8.0120    1.5410   -0.0080 c         1 MOL      0.540263
     63 O10         8.6050    1.1620   -1.0420 o         1 MOL     -0.482902
     64 C21         9.1170    3.6330    0.6840 c3        1 MOL     -0.038993
     65 C22         9.8330    2.9900    1.8640 c         1 MOL      0.623879
     66 O11        10.1920    3.7030    2.8010 o         1 MOL     -0.659360
     67 O12        10.1900    1.7980    1.7550 o         1 MOL     -0.659360
     68 H28         7.9860    3.9760   -1.4550 hn        1 MOL      0.297140
     69 H29         7.1160    3.0790    1.2270 h1        1 MOL      0.104260
     70 H30         9.0920    4.6950    0.9350 hc        1 MOL      0.024254
     71 H31         9.6120    3.5630   -0.2820 hc        1 MOL      0.024254
     72 N7          7.6620    0.6230    0.9330 n         1 MOL     -0.468157
     73 C23         7.8380   -0.8550    0.8730 c3        1 MOL      0.043325
     74 C24         7.0500   -1.6430   -0.1680 c         1 MOL      0.580001
     75 O13         6.5650   -1.1360   -1.1690 o         1 MOL     -0.508439
     76 H32         7.1800    1.0090    1.7300 hn        1 MOL      0.280598
     77 H33         7.5980   -1.2450    1.8650 h1        1 MOL      0.063378
     78 H34         8.8760   -1.1780    0.7940 h1        1 MOL      0.063378
     79 N8          6.9460   -2.9440    0.1200 n         1 MOL     -0.576605
     80 C25         6.1320   -3.9530   -0.6490 c3        1 MOL      0.114013
     81 C26         4.5800   -3.7890   -0.4980 c         1 MOL      0.480499
     82 O14         4.0830   -3.6990    0.6380 o         1 MOL     -0.525615
     83 C27         6.6540   -5.3900   -0.3570 c3        1 MOL      0.202005
     84 C28         8.1120   -5.5530   -0.5760 c3        1 MOL     -0.177819
     85 O15         6.1090   -6.3170   -1.3170 oh        1 MOL     -0.634222
     86 H35         7.3850   -3.1730    1.0020 hn        1 MOL      0.281382
     87 H36         6.3430   -3.7520   -1.7040 h1        1 MOL      0.116212
     88 H37         6.3930   -5.7030    0.6530 h1        1 MOL      0.024235
     89 H38         6.2780   -7.1790   -0.9290 ho        1 MOL      0.409197
     90 H39         8.3860   -5.2020   -1.5630 hc        1 MOL      0.056482
     91 H40         8.7210   -4.9370    0.1010 hc        1 MOL      0.056482
     92 H41         8.5060   -6.5590   -0.4500 hc        1 MOL      0.056482
     93 N9          3.8670   -3.7320   -1.6220 n         1 MOL     -0.420834
     94 C29         2.4870   -3.2470   -1.6720 c3        1 MOL     -0.083840
     95 C30         1.5820   -4.3910   -1.9500 c         1 MOL      0.525212
     96 O16         1.4700   -4.8120   -3.0990 o         1 MOL     -0.539939
     97 C31         2.2230   -2.1340   -2.7810 c3        1 MOL      0.056647
     98 C32         3.2070   -0.9250   -2.7310 c3        1 MOL      0.375649
     99 C33         0.8190   -1.4590   -2.6890 c3        1 MOL     -0.271013
    100 C34         3.3400   -0.1500   -4.0290 c3        1 MOL     -0.178746
    101 H42         4.3280   -3.8450   -2.5060 hn        1 MOL      0.293068
    102 H43         2.2410   -2.7730   -0.7210 h1        1 MOL      0.152708
    103 H44         2.1790   -2.5610   -3.7810 hc        1 MOL      0.036968
    104 H45         4.1790   -1.4180   -2.6490 hc        1 MOL     -0.103270
    105 H46         3.0770   -0.3240   -1.8340 hc        1 MOL     -0.103270
    106 H47         0.0240   -2.1990   -2.6220 hc        1 MOL      0.042608
    107 H48         0.7900   -0.7890   -1.8320 hc        1 MOL      0.042608
    108 H49         0.6960   -0.9850   -3.6680 hc        1 MOL      0.042608
    109 H50         2.4450    0.4380   -4.2670 hc        1 MOL      0.028949
    110 H51         4.0580    0.6270   -3.7640 hc        1 MOL      0.028949
    111 H52         3.5480   -0.7290   -4.9310 hc        1 MOL      0.028949
    112 N10         0.6820   -4.5860   -0.9890 n         1 MOL     -0.311497
    113 C35        -0.4440   -5.4840   -1.1410 c3        1 MOL     -0.124080
    114 C36        -1.7690   -4.8660   -1.6930 c         1 MOL      0.356239
    115 O17        -2.5970   -5.6470   -2.2060 o         1 MOL     -0.518383
    116 C37        -0.6820   -6.1840    0.2000 c3        1 MOL      0.242847
    117 C38        -0.9500   -5.2440    1.3790 c3        1 MOL     -0.184608
    118 O18         0.4400   -6.8770    0.5880 oh        1 MOL     -0.602355
    119 H53         0.8110   -4.0140   -0.1680 hn        1 MOL      0.257129
    120 H54        -0.1760   -6.2520   -1.8690 h1        1 MOL      0.133148
    121 H55        -1.5820   -6.7960    0.1170 h1        1 MOL      0.034552
    122 H56         0.4210   -7.6920    0.0850 ho        1 MOL      0.390766
    123 H57        -0.9700   -5.8790    2.2600 hc        1 MOL      0.080509
    124 H58        -0.0760   -4.5940    1.3870 hc        1 MOL      0.080509
    125 H59        -1.8320   -4.6380    1.1990 hc        1 MOL      0.080509
    126 N11        -1.9460   -3.5520   -1.6870 n         1 MOL     -0.127923
    127 C39        -3.1980   -2.7770   -2.1130 c3        1 MOL     -0.038605
    128 C40        -4.4310   -3.0180   -1.2750 c         1 MOL      0.316061
    129 O19        -4.6480   -4.1510   -0.6910 o         1 MOL     -0.431384
    130 C41        -3.4710   -3.0160   -3.6420 c3        1 MOL      0.420185
    131 C42        -2.3530   -2.6140   -4.5540 c3        1 MOL     -0.341904
    132 O20        -4.5800   -2.4270   -4.2750 oh        1 MOL     -0.694367
    133 H60        -1.2500   -3.1110   -1.0970 hn        1 MOL      0.206335
    134 H61        -2.9070   -1.7260   -2.0180 h1        1 MOL      0.050157
    135 H62        -3.5290   -4.1000   -3.7310 h1        1 MOL      0.084683
    136 H63        -4.4970   -1.5010   -4.5140 ho        1 MOL      0.406714
    137 H64        -2.2200   -1.5370   -4.5490 hc        1 MOL      0.082241
    138 H65        -1.4130   -2.9880   -4.1590 hc        1 MOL      0.082241
    139 H66        -2.5100   -2.8920   -5.6050 hc        1 MOL      0.082241
    140 N12        -5.3390   -2.0270   -1.2890 n         1 MOL     -0.229647
    141 C43        -6.6900   -1.9620   -0.7490 c3        1 MOL     -0.095942
    142 C44        -6.7340   -1.9580    0.7620 c         1 MOL      0.509710
    143 O21        -7.7190   -2.4500    1.2500 o         1 MOL     -0.564764
    144 C45        -7.3070   -0.6360   -1.2570 c3        1 MOL     -0.178011
    145 C46        -7.5860   -0.5760   -2.7640 c3        1 MOL     -0.029876
    146 C47        -8.2960    0.7820   -3.1060 c3        1 MOL      0.021563
    147 C48        -8.6020    0.8800   -4.6740 c3        1 MOL      0.007945
    148 N13        -9.6940    0.0050   -5.0010 n4        1 MOL     -0.329342
    149 H67        -4.9450   -1.1320   -1.5560 hn        1 MOL      0.239847
    150 H68        -7.2950   -2.7950   -1.0990 h1        1 MOL      0.132172
    151 H69        -6.6590    0.2080   -1.0020 hc        1 MOL      0.091377
    152 H70        -8.2380   -0.5760   -0.6970 hc        1 MOL      0.091377
    153 H71        -8.1840   -1.4420   -3.0490 hc        1 MOL      0.012557
    154 H72        -6.7170   -0.6920   -3.4020 hc        1 MOL      0.012557
    155 H73        -7.5030    1.4900   -2.8590 hc        1 MOL      0.034933
    156 H74        -9.2020    0.9590   -2.5310 hc        1 MOL      0.034933
    157 H75        -7.6900    0.5980   -5.1960 hx        1 MOL      0.089439
    158 H76        -8.8990    1.8940   -4.9240 hx        1 MOL      0.089439
    159 H77       -10.4230    0.0380   -4.2960 hn        1 MOL      0.317054
    160 H78       -10.0090    0.1750   -5.9390 hn        1 MOL      0.317054
    161 H79        -9.3630   -0.9340   -5.1340 hn        1 MOL      0.317054
    162 N14        -5.7500   -1.4090    1.4830 n         1 MOL     -0.100182
    163 C49        -5.8490   -1.3920    2.9380 c3        1 MOL     -0.498864
    164 C50        -6.7150   -0.1660    3.4430 c         1 MOL      0.547137
    165 O22        -6.2910    0.9680    3.1460 o         1 MOL     -0.507877
    166 C51        -4.3890   -1.3120    3.5250 c3        1 MOL     -0.062326
    167 C52        -3.5840   -2.6280    3.3430 c3        1 MOL      0.042932
    168 C53        -2.0670   -2.3130    3.4330 c         1 MOL      0.750738
    169 O23        -1.4900   -1.4890    2.6690 o         1 MOL     -0.820621
    170 O24        -1.4680   -2.8970    4.3060 o         1 MOL     -0.820621
    171 H80        -5.0040   -0.9540    0.9680 hn        1 MOL      0.218215
    172 H81        -6.3290   -2.3290    3.2240 h1        1 MOL      0.195154
    173 H82        -4.3800   -0.9590    4.5510 hc        1 MOL      0.088416
    174 H83        -3.8480   -0.4510    3.1270 hc        1 MOL      0.088416
    175 H84        -3.8180   -3.0930    2.3930 hc        1 MOL     -0.011340
    176 H85        -3.8290   -3.3850    4.0930 hc        1 MOL     -0.011340
    177 N15        -7.7960   -0.4220    4.1500 n         1 MOL     -0.265380
    178 C54        -8.7320    0.5950    4.5950 c3        1 MOL     -0.122382
    179 H86        -8.9330    0.4620    5.6580 h1        1 MOL      0.078522
    180 H87        -8.3020    1.5830    4.4280 h1        1 MOL      0.078522
    181 H88        -9.6620    0.5030    4.0350 h1        1 MOL      0.078522
    182 H89        -7.9910   -1.3330    4.5540 hn        1 MOL      0.256762
    183 Ca1         0.5960   -1.2100    4.3290 Ca        1 MOL      1.796273
    184 O25         1.8330   -3.5570    3.3720 oh        1 MOL     -0.928906
    185 H90         1.7850   -3.9700    4.2380 ho        1 MOL      0.450858
    186 H91         2.5590   -3.9910    2.9390 ho        1 MOL      0.450858
    187 O26        -1.3940    0.5520    5.0690 oh        1 MOL     -0.928906
    188 H92        -2.3040    0.7010    5.3230 ho        1 MOL      0.450858
    189 H93        -1.1300    1.3650    4.6320 ho        1 MOL      0.450858
    190 O27         3.2320   -1.2910    5.0420 oh        1 MOL     -0.928906
    191 H94         3.9300   -1.8960    5.3000 ho        1 MOL      0.450858
    192 H95         3.6860   -0.5630    4.6220 ho        1 MOL      0.450858
@<TRIPOS>BOND
     1    1    2 1   
     2    1    4 1   
     3    1    5 1   
     4    1    6 1   
     5    2    3 2   
     6    2    7 1   
     7    7    8 1   
     8    7   15 1   
     9    8    9 1   
    10    8   11 1   
    11    8   16 1   
    12    9   10 2   
    13    9   19 1   
    14   11   12 1   
    15   11   17 1   
    16   11   18 1   
    17   12   13 1   
    18   12   14 1   
    19   19   20 1   
    20   19   28 1   
    21   20   21 1   
    22   20   23 1   
    23   20   29 1   
    24   21   22 2   
    25   21   41 1   
    26   23   24 1   
    27   23   30 1   
    28   23   31 1   
    29   24   25 1   
    30   24   32 1   
    31   24   33 1   
    32   25   26 1   
    33   25   34 1   
    34   25   35 1   
    35   26   27 1   
    36   26   36 1   
    37   26   37 1   
    38   27   38 1   
    39   27   39 1   
    40   27   40 1   
    41   41   42 1   
    42   41   49 1   
    43   42   43 1   
    44   42   45 1   
    45   42   50 1   
    46   43   44 2   
    47   43   53 1   
    48   45   46 1   
    49   45   51 1   
    50   45   52 1   
    51   46   47 1   
    52   46   48 1   
    53   53   54 1   
    54   53   57 1   
    55   54   55 1   
    56   54   58 1   
    57   54   59 1   
    58   55   56 2   
    59   55   60 1   
    60   60   61 1   
    61   60   68 1   
    62   61   62 1   
    63   61   64 1   
    64   61   69 1   
    65   62   63 2   
    66   62   72 1   
    67   64   65 1   
    68   64   70 1   
    69   64   71 1   
    70   65   66 1   
    71   65   67 1   
    72   72   73 1   
    73   72   76 1   
    74   73   74 1   
    75   73   77 1   
    76   73   78 1   
    77   74   75 2   
    78   74   79 1   
    79   79   80 1   
    80   79   86 1   
    81   80   81 1   
    82   80   83 1   
    83   80   87 1   
    84   81   82 2   
    85   81   93 1   
    86   83   84 1   
    87   83   85 1   
    88   83   88 1   
    89   84   90 1   
    90   84   91 1   
    91   84   92 1   
    92   85   89 1   
    93   93   94 1   
    94   93  101 1   
    95   94   95 1   
    96   94   97 1   
    97   94  102 1   
    98   95   96 2   
    99   95  112 1   
   100   97   98 1   
   101   97   99 1   
   102   97  103 1   
   103   98  100 1   
   104   98  104 1   
   105   98  105 1   
   106   99  106 1   
   107   99  107 1   
   108   99  108 1   
   109  100  109 1   
   110  100  110 1   
   111  100  111 1   
   112  112  113 1   
   113  112  119 1   
   114  113  114 1   
   115  113  116 1   
   116  113  120 1   
   117  114  115 2   
   118  114  126 1   
   119  116  117 1   
   120  116  118 1   
   121  116  121 1   
   122  117  123 1   
   123  117  124 1   
   124  117  125 1   
   125  118  122 1   
   126  126  127 1   
   127  126  133 1   
   128  127  128 1   
   129  127  130 1   
   130  127  134 1   
   131  128  129 2   
   132  128  140 1   
   133  130  131 1   
   134  130  132 1   
   135  130  135 1   
   136  131  137 1   
   137  131  138 1   
   138  131  139 1   
   139  132  136 1   
   140  140  141 1   
   141  140  149 1   
   142  141  142 1   
   143  141  144 1   
   144  141  150 1   
   145  142  143 2   
   146  142  162 1   
   147  144  145 1   
   148  144  151 1   
   149  144  152 1   
   150  145  146 1   
   151  145  153 1   
   152  145  154 1   
   153  146  147 1   
   154  146  155 1   
   155  146  156 1   
   156  147  148 1   
   157  147  157 1   
   158  147  158 1   
   159  148  159 1   
   160  148  160 1   
   161  148  161 1   
   162  162  163 1   
   163  162  171 1   
   164  163  164 1   
   165  163  166 1   
   166  163  172 1   
   167  164  165 2   
   168  164  177 1   
   169  166  167 1   
   170  166  173 1   
   171  166  174 1   
   172  167  168 1   
   173  167  175 1   
   174  167  176 1   
   175  168  169 1   
   176  168  170 1   
   177  177  178 1   
   178  177  182 1   
   179  178  179 1   
   180  178  180 1   
   181  178  181 1   
   182  184  185 1   
   183  184  186 1   
   184  187  188 1   
   185  187  189 1   
   186  190  191 1   
   187  190  192 1   
@<TRIPOS>SUBSTRUCTURE
     1 MOL         1 TEMP              0 ****  ****    0 ROOT
