@<TRIPOS>MOLECULE
MOL
  181   177     1     0     0
SMALL
resp


@<TRIPOS>ATOM
      1 C1          2.5060   -1.3490    4.5670 c3        1 MOL     -0.395353
      2 C2          3.7800   -0.4730    4.4480 c         1 MOL      0.651540
      3 O1          3.8520    0.6740    4.9260 o         1 MOL     -0.610580
      4 H1          2.4580   -1.7850    5.5650 hc        1 MOL      0.105867
      5 H2          1.6230   -0.7320    4.3970 hc        1 MOL      0.105867
      6 H3          2.5410   -2.1450    3.8240 hc        1 MOL      0.105867
      7 N1          4.8260   -1.1510    3.9010 n         1 MOL     -0.472130
      8 C3          6.1050   -0.5550    3.6320 c3        1 MOL      0.102533
      9 C4          6.1850    0.0210    2.1630 c         1 MOL      0.535913
     10 O2          5.9660   -0.7260    1.1870 o         1 MOL     -0.552004
     11 C5          7.2500   -1.5740    3.8260 c3        1 MOL     -0.171152
     12 C6          7.1030   -2.8540    2.9970 c         1 MOL      0.767313
     13 O3          6.1520   -3.6330    3.1870 o         1 MOL     -0.713523
     14 O4          8.1100   -3.1440    2.2780 o         1 MOL     -0.713523
     15 H4          4.5940   -2.0680    3.5600 hn        1 MOL      0.268021
     16 H5          6.2180    0.2950    4.2930 h1        1 MOL      0.023189
     17 H6          7.3770   -1.8340    4.8830 hc        1 MOL      0.016588
     18 H7          8.1620   -1.0150    3.6010 hc        1 MOL      0.016588
     19 N2          6.5810    1.2680    2.0840 n         1 MOL     -0.467826
     20 C7          7.0290    1.8080    0.8400 c3        1 MOL      0.157023
     21 C8          5.9000    2.2280   -0.1100 c         1 MOL      0.584276
     22 O5          5.0570    3.0930    0.1560 o         1 MOL     -0.576640
     23 C9          7.9360    3.0060    0.9440 c3        1 MOL     -0.324186
     24 H8          6.6510    1.7870    2.9430 hn        1 MOL      0.304271
     25 H9          7.5840    1.0020    0.3680 h1        1 MOL      0.073936
     26 H10         8.3080    3.4170    0.0100 hc        1 MOL      0.088677
     27 H11         7.3760    3.8020    1.4380 hc        1 MOL      0.088677
     28 H12         8.7570    2.9070    1.6510 hc        1 MOL      0.088677
     29 N3          5.8890    1.7180   -1.3660 n         1 MOL     -0.467936
     30 C10         4.8360    1.7990   -2.3850 c3        1 MOL     -0.047911
     31 C11         4.9260    3.1000   -3.2210 c         1 MOL      0.722126
     32 O6          6.1040    3.5130   -3.5660 o         1 MOL     -0.567388
     33 C12         4.7770    0.5170   -3.2700 c3        1 MOL     -0.463961
     34 C13         4.9320   -0.7610   -2.4610 c         1 MOL      0.972573
     35 O7          3.9020   -1.4200   -2.1490 o         1 MOL     -0.745933
     36 O8          6.0910   -1.2260   -2.3070 o         1 MOL     -0.745933
     37 H13         6.6500    1.1440   -1.7060 hn        1 MOL      0.283509
     38 H14         3.8790    1.8390   -1.8520 h1        1 MOL      0.087279
     39 H15         5.6360    0.5430   -3.9410 hc        1 MOL      0.102020
     40 H16         3.8920    0.4750   -3.9050 hc        1 MOL      0.102020
     41 N4          3.7770    3.6790   -3.5490 n         1 MOL     -0.560195
     42 C14         3.7230    4.9970   -4.2060 c3        1 MOL     -0.030064
     43 C15         2.4530    5.8020   -3.8460 c         1 MOL      0.504381
     44 O9          2.2590    6.8460   -4.4370 o         1 MOL     -0.524458
     45 H17         2.9320    3.1850   -3.2920 hn        1 MOL      0.331705
     46 H18         3.7840    4.9830   -5.2900 h1        1 MOL      0.091508
     47 H19         4.6410    5.5390   -3.9490 h1        1 MOL      0.091508
     48 N5          1.5730    5.3130   -2.9420 n         1 MOL     -0.403233
     49 C16         0.3040    5.7940   -2.4170 c3        1 MOL      0.219226
     50 C17         0.0880    5.7390   -0.8850 c         1 MOL      0.438013
     51 O10         0.5740    4.7920   -0.2880 o         1 MOL     -0.439977
     52 C18        -0.8620    5.0950   -3.1760 c3        1 MOL     -0.361024
     53 C19        -0.8080    5.6670   -4.5570 c         1 MOL      0.644254
     54 N6         -0.0940    4.9690   -5.3660 n         1 MOL     -0.655946
     55 O11        -1.4900    6.6170   -4.9320 o         1 MOL     -0.555796
     56 H20         1.8180    4.3890   -2.6320 hn        1 MOL      0.208439
     57 H21         0.2050    6.8430   -2.7280 h1        1 MOL      0.017724
     58 H22        -1.7620    5.4430   -2.6780 hc        1 MOL      0.108136
     59 H23        -0.7140    4.0120   -3.1790 hc        1 MOL      0.108136
     60 H24         0.4280    4.1800   -5.0100 hn        1 MOL      0.320409
     61 H25        -0.2510    4.8740   -6.3530 hn        1 MOL      0.320409
     62 N7         -0.6950    6.6770   -0.3730 n         1 MOL     -0.440455
     63 C20        -1.1810    6.7450    1.0290 c3        1 MOL     -0.145103
     64 C21        -2.3610    5.8360    1.1900 c         1 MOL      0.648821
     65 O12        -2.8530    5.3050    0.2230 o         1 MOL     -0.448282
     66 H26        -1.0990    7.2780   -1.0860 hn        1 MOL      0.303568
     67 H27        -1.4810    7.7780    1.2370 h1        1 MOL      0.111035
     68 H28        -0.3930    6.3180    1.6470 h1        1 MOL      0.111035
     69 N8         -2.9330    5.7730    2.4090 n         1 MOL     -0.335758
     70 C22        -4.3470    5.3300    2.6050 c3        1 MOL     -0.650598
     71 C23        -4.6370    3.8240    2.5860 c         1 MOL      0.746054
     72 O13        -5.8030    3.4650    2.4290 o         1 MOL     -0.573272
     73 C24        -5.0500    6.0110    3.8050 c3        1 MOL      0.688842
     74 C25        -4.2100    5.7270    5.0820 c3        1 MOL     -0.557478
     75 O14        -5.0840    7.3890    3.7240 oh        1 MOL     -0.668015
     76 H29        -2.5360    6.3390    3.1560 hn        1 MOL      0.201075
     77 H30        -4.7530    5.8100    1.7090 h1        1 MOL      0.190875
     78 H31        -6.0280    5.5530    3.9570 h1        1 MOL      0.014771
     79 H32        -4.1780    7.6720    3.5570 ho        1 MOL      0.399037
     80 H33        -3.1980    6.1200    5.0280 hc        1 MOL      0.136085
     81 H34        -4.7650    6.1930    5.8970 hc        1 MOL      0.136085
     82 H35        -4.0320    4.6610    5.1720 hc        1 MOL      0.136085
     83 N9         -3.6180    2.9970    2.6890 n         1 MOL     -0.381075
     84 C26        -3.6790    1.5360    2.8620 c3        1 MOL     -0.045509
     85 C27        -2.5510    0.9500    2.0040 c         1 MOL      0.471156
     86 O15        -1.5480    1.5700    1.8180 o         1 MOL     -0.477923
     87 C28        -3.6300    1.1790    4.3480 c3        1 MOL      0.246485
     88 C29        -4.6690    1.7130    5.2750 c3        1 MOL     -0.172611
     89 C30        -3.6230   -0.3740    4.4600 c3        1 MOL     -0.316150
     90 C31        -4.0930    1.8580    6.7010 c3        1 MOL     -0.024688
     91 H36        -2.7160    3.4260    2.8530 hn        1 MOL      0.247460
     92 H37        -4.6170    1.1080    2.5070 h1        1 MOL      0.069924
     93 H38        -2.6640    1.5520    4.7070 hc        1 MOL      0.018602
     94 H39        -5.4620    0.9730    5.3170 hc        1 MOL      0.034447
     95 H40        -4.8870    2.6840    4.8330 hc        1 MOL      0.034447
     96 H41        -4.3330   -0.7570    3.7350 hc        1 MOL      0.078022
     97 H42        -2.6330   -0.7170    4.1550 hc        1 MOL      0.078022
     98 H43        -3.7060   -0.7660    5.4810 hc        1 MOL      0.078022
     99 H44        -4.0080    0.8890    7.1890 hc        1 MOL      0.012642
    100 H45        -3.1190    2.3350    6.7420 hc        1 MOL      0.012642
    101 H46        -4.7230    2.4380    7.3730 hc        1 MOL      0.012642
    102 N10        -2.7250   -0.3220    1.5360 n         1 MOL     -0.381989
    103 C32        -1.8110   -0.9460    0.6020 c3        1 MOL      0.266408
    104 C33        -2.6260   -1.7060   -0.5080 c         1 MOL      0.337131
    105 O16        -2.1450   -2.7740   -0.9090 o         1 MOL     -0.364545
    106 C34        -0.8370   -1.9090    1.3270 c3        1 MOL     -0.297772
    107 C35         0.3940   -2.4420    0.5860 c         1 MOL      0.855047
    108 O17         0.8450   -1.9990   -0.5140 o         1 MOL     -0.793007
    109 O18         1.0510   -3.3950    1.1250 o         1 MOL     -0.793007
    110 H47        -3.6620   -0.6960    1.6260 hn        1 MOL      0.228491
    111 H48        -1.2120   -0.2360    0.0250 h1        1 MOL      0.037101
    112 H49        -1.4760   -2.7160    1.6930 hc        1 MOL      0.056068
    113 H50        -0.4920   -1.4210    2.2370 hc        1 MOL      0.056068
    114 N11        -3.7200   -1.2040   -0.9790 n         1 MOL     -0.292209
    115 C36        -4.4900   -1.7500   -2.0660 c3        1 MOL      0.189116
    116 C37        -4.9480   -3.2190   -1.7820 c         1 MOL      0.193834
    117 O19        -5.2910   -3.5140   -0.6080 o         1 MOL     -0.522833
    118 C38        -5.6570   -0.8850   -2.3600 c3        1 MOL     -0.235068
    119 C39        -5.4950    0.6220   -2.2440 ca        1 MOL      0.033452
    120 C40        -5.8520    1.2680   -1.0290 ca        1 MOL     -0.116796
    121 C41        -4.9480    1.3580   -3.3180 ca        1 MOL     -0.116796
    122 C42        -5.6050    2.6360   -0.9740 ca        1 MOL     -0.154296
    123 C43        -4.7220    2.7320   -3.1960 ca        1 MOL     -0.154296
    124 C44        -4.8700    3.3270   -1.9680 ca        1 MOL     -0.016190
    125 H51        -3.9620   -0.2660   -0.6880 hn        1 MOL      0.200666
    126 H52        -3.8140   -1.6470   -2.9170 h1        1 MOL      0.022679
    127 H53        -6.4110   -1.1460   -1.6240 hc        1 MOL      0.085833
    128 H54        -6.0560   -1.1670   -3.3310 hc        1 MOL      0.085833
    129 H55        -6.2730    0.7110   -0.2160 ha        1 MOL      0.110080
    130 H56        -4.7900    0.8500   -4.2540 ha        1 MOL      0.110080
    131 H57        -5.9580    3.1740   -0.1040 ha        1 MOL      0.115967
    132 H58        -4.3610    3.2700   -4.0630 ha        1 MOL      0.115967
    133 H59        -4.6350    4.3770   -1.8630 ha        1 MOL      0.085043
    134 N12        -4.9210   -4.1250   -2.6960 n         1 MOL      0.082468
    135 C45        -5.4120   -5.4370   -2.4980 c3        1 MOL      0.027937
    136 C46        -4.5390   -6.2060   -1.4650 c         1 MOL      0.319954
    137 O20        -4.9070   -7.3520   -1.1110 o         1 MOL     -0.541546
    138 C47        -5.6160   -5.9520   -3.8730 c3        1 MOL     -0.079091
    139 C48        -4.5370   -5.2960   -4.6860 c3        1 MOL      0.000272
    140 C49        -4.4130   -3.9270   -4.0640 c3        1 MOL     -0.142819
    141 H60        -6.3990   -5.3440   -2.0430 h1        1 MOL      0.063244
    142 H61        -5.4880   -7.0230   -4.0170 hc        1 MOL      0.040891
    143 H62        -6.5690   -5.6010   -4.2510 hc        1 MOL      0.040891
    144 H63        -3.5650   -5.7150   -4.4330 hc        1 MOL      0.030905
    145 H64        -4.8470   -5.2740   -5.7250 hc        1 MOL      0.030905
    146 H65        -3.3380   -3.8510   -3.9550 h1        1 MOL      0.072814
    147 H66        -4.8300   -3.1420   -4.6990 h1        1 MOL      0.072814
    148 N13        -3.3440   -5.7530   -1.0280 n         1 MOL      0.024326
    149 C50        -2.3500   -6.5360   -0.1810 c3        1 MOL     -0.410022
    150 C51        -2.7730   -6.5960    1.2890 c         1 MOL      0.560973
    151 O21        -2.4460   -7.5940    1.9280 o         1 MOL     -0.539502
    152 C52        -0.9220   -5.9070   -0.2070 c3        1 MOL      0.328310
    153 C53        -0.3710   -5.9030   -1.6200 c3        1 MOL     -0.362933
    154 C54         1.0520   -5.2410   -1.7050 c         1 MOL      0.740956
    155 O22         1.9220   -5.6390   -0.8940 o         1 MOL     -0.751707
    156 O23         1.3290   -4.2710   -2.4900 o         1 MOL     -0.751707
    157 H67        -3.1620   -4.7760   -1.2220 hn        1 MOL      0.055890
    158 H68        -2.4490   -7.5480   -0.5790 h1        1 MOL      0.174766
    159 H69        -0.2790   -6.4890    0.4580 hc        1 MOL     -0.000544
    160 H70        -0.9540   -4.8880    0.1690 hc        1 MOL     -0.000544
    161 H71        -1.0890   -5.3040   -2.1930 hc        1 MOL      0.061545
    162 H72        -0.3780   -6.8980   -2.0630 hc        1 MOL      0.061545
    163 N14        -3.5130   -5.5680    1.7470 n         1 MOL     -0.292205
    164 C55        -3.7830   -5.3970    3.1400 c3        1 MOL     -0.146352
    165 H73        -3.1340   -6.0530    3.7190 h1        1 MOL      0.067204
    166 H74        -3.5950   -4.3610    3.4230 h1        1 MOL      0.067204
    167 H75        -4.8240   -5.6460    3.3420 h1        1 MOL      0.067204
    168 H76        -3.7800   -4.7650    1.1870 hn        1 MOL      0.273382
    169 Ca1         3.1190   -3.3510   -0.6180 Ca        1 MOL      1.799649
    170 O24         5.6480   -2.8220   -0.3310 oh        1 MOL     -0.860750
    171 H77         6.1780   -2.4810    0.3980 ho        1 MOL      0.409672
    172 H78         5.8360   -2.2330   -1.0570 ho        1 MOL      0.409672
    173 O25         4.0060   -4.4510    1.6390 oh        1 MOL     -0.860750
    174 H79         4.8430   -4.3820    2.1060 ho        1 MOL      0.409672
    175 H80         3.3540   -4.5730    2.3290 ho        1 MOL      0.409672
    176 O26         3.2130   -1.1220    0.8860 oh        1 MOL     -0.860750
    177 H81         2.7350   -0.3280    0.6380 ho        1 MOL      0.409672
    178 H82         4.1250   -0.8520    0.9170 ho        1 MOL      0.409672
    179 O27         4.4870   -5.0990   -2.3760 oh        1 MOL     -0.860750
    180 H83         4.7690   -5.2980   -3.2680 ho        1 MOL      0.409672
    181 H84         4.5330   -5.9350   -1.9170 ho        1 MOL      0.409672
@<TRIPOS>BOND
     1    1    2 1   
     2    1    4 1   
     3    1    5 1   
     4    1    6 1   
     5    2    3 2   
     6    2    7 1   
     7    7    8 1   
     8    7   15 1   
     9    8    9 1   
    10    8   11 1   
    11    8   16 1   
    12    9   10 2   
    13    9   19 1   
    14   11   12 1   
    15   11   17 1   
    16   11   18 1   
    17   12   13 1   
    18   12   14 1   
    19   19   20 1   
    20   19   24 1   
    21   20   21 1   
    22   20   23 1   
    23   20   25 1   
    24   21   22 2   
    25   21   29 1   
    26   23   26 1   
    27   23   27 1   
    28   23   28 1   
    29   29   30 1   
    30   29   37 1   
    31   30   31 1   
    32   30   33 1   
    33   30   38 1   
    34   31   32 2   
    35   31   41 1   
    36   33   34 1   
    37   33   39 1   
    38   33   40 1   
    39   34   35 1   
    40   34   36 1   
    41   41   42 1   
    42   41   45 1   
    43   42   43 1   
    44   42   46 1   
    45   42   47 1   
    46   43   44 2   
    47   43   48 1   
    48   48   49 1   
    49   48   56 1   
    50   49   50 1   
    51   49   52 1   
    52   49   57 1   
    53   50   51 2   
    54   50   62 1   
    55   52   53 1   
    56   52   58 1   
    57   52   59 1   
    58   53   54 1   
    59   53   55 2   
    60   54   60 1   
    61   54   61 1   
    62   62   63 1   
    63   62   66 1   
    64   63   64 1   
    65   63   67 1   
    66   63   68 1   
    67   64   65 2   
    68   64   69 1   
    69   69   70 1   
    70   69   76 1   
    71   70   71 1   
    72   70   73 1   
    73   70   77 1   
    74   71   72 2   
    75   71   83 1   
    76   73   74 1   
    77   73   75 1   
    78   73   78 1   
    79   74   80 1   
    80   74   81 1   
    81   74   82 1   
    82   75   79 1   
    83   83   84 1   
    84   83   91 1   
    85   84   85 1   
    86   84   87 1   
    87   84   92 1   
    88   85   86 2   
    89   85  102 1   
    90   87   88 1   
    91   87   89 1   
    92   87   93 1   
    93   88   90 1   
    94   88   94 1   
    95   88   95 1   
    96   89   96 1   
    97   89   97 1   
    98   89   98 1   
    99   90   99 1   
   100   90  100 1   
   101   90  101 1   
   102  102  103 1   
   103  102  110 1   
   104  103  104 1   
   105  103  106 1   
   106  103  111 1   
   107  104  105 2   
   108  104  114 1   
   109  106  107 1   
   110  106  112 1   
   111  106  113 1   
   112  107  108 1   
   113  107  109 1   
   114  114  115 1   
   115  114  125 1   
   116  115  116 1   
   117  115  118 1   
   118  115  126 1   
   119  116  117 2   
   120  116  134 1   
   121  118  119 1   
   122  118  127 1   
   123  118  128 1   
   124  119  120 ar  
   125  119  121 ar  
   126  120  122 ar  
   127  120  129 1   
   128  121  123 ar  
   129  121  130 1   
   130  122  124 ar  
   131  122  131 1   
   132  123  124 ar  
   133  123  132 1   
   134  124  133 1   
   135  134  135 1   
   136  134  140 1   
   137  135  136 1   
   138  135  138 1   
   139  135  141 1   
   140  136  137 2   
   141  136  148 1   
   142  138  139 1   
   143  138  142 1   
   144  138  143 1   
   145  139  140 1   
   146  139  144 1   
   147  139  145 1   
   148  140  146 1   
   149  140  147 1   
   150  148  149 1   
   151  148  157 1   
   152  149  150 1   
   153  149  152 1   
   154  149  158 1   
   155  150  151 2   
   156  150  163 1   
   157  152  153 1   
   158  152  159 1   
   159  152  160 1   
   160  153  154 1   
   161  153  161 1   
   162  153  162 1   
   163  154  155 1   
   164  154  156 1   
   165  163  164 1   
   166  163  168 1   
   167  164  165 1   
   168  164  166 1   
   169  164  167 1   
   170  170  171 1   
   171  170  172 1   
   172  173  174 1   
   173  173  175 1   
   174  176  177 1   
   175  176  178 1   
   176  179  180 1   
   177  179  181 1   
@<TRIPOS>SUBSTRUCTURE
     1 MOL         1 TEMP              0 ****  ****    0 ROOT
