@<TRIPOS>MOLECULE
MOL
  187   181     1     0     0
SMALL
resp


@<TRIPOS>ATOM
      1 C1          2.3970   -1.3760    4.0900 c3        1 MOL     -0.426669
      2 C2          3.7980   -1.0110    3.5260 c         1 MOL      0.604714
      3 O1          4.0660    0.0480    3.0100 o         1 MOL     -0.553168
      4 H1          2.5030   -1.7600    5.1050 hc        1 MOL      0.111181
      5 H2          1.7660   -0.4860    4.1030 hc        1 MOL      0.111181
      6 H3          1.9380   -2.1380    3.4600 hc        1 MOL      0.111181
      7 N1          4.7460   -1.9820    3.5720 n         1 MOL     -0.292857
      8 C3          6.1330   -1.7480    3.3520 c3        1 MOL     -0.082909
      9 C4          6.5030   -1.6990    1.8320 c         1 MOL      0.605129
     10 O2          5.8800   -2.3170    0.9830 o         1 MOL     -0.508396
     11 C5          6.9280   -2.8090    4.1120 c3        1 MOL     -0.104347
     12 C6          8.4630   -2.7380    4.0760 c         1 MOL      0.715700
     13 O3          9.0170   -1.6020    3.9580 o         1 MOL     -0.711288
     14 O4          9.1550   -3.7650    4.2920 o         1 MOL     -0.711288
     15 H4          4.5480   -2.8650    4.0180 hn        1 MOL      0.216500
     16 H5          6.2990   -0.7990    3.8580 h1        1 MOL      0.083835
     17 H6          6.6540   -3.7710    3.6820 hc        1 MOL     -0.002713
     18 H7          6.5170   -2.7630    5.1260 hc        1 MOL     -0.002713
     19 N2          7.4750   -0.8430    1.5610 n         1 MOL     -0.505211
     20 C7          7.8660   -0.4750    0.2210 c3        1 MOL      0.381745
     21 C8          6.6930   -0.1990   -0.7760 c         1 MOL      0.414027
     22 O5          5.5760    0.1420   -0.3970 o         1 MOL     -0.523074
     23 C9          8.6120    0.8020    0.4850 c3        1 MOL     -0.570841
     24 H8          7.9850   -0.4190    2.3280 hn        1 MOL      0.254940
     25 H9          8.4780   -1.2740   -0.2130 h1        1 MOL      0.043257
     26 H10         9.2280    1.0840   -0.3710 hc        1 MOL      0.147211
     27 H11         7.9490    1.5880    0.8390 hc        1 MOL      0.147211
     28 H12         9.3000    0.7510    1.3270 hc        1 MOL      0.147211
     29 N3          6.9150   -0.3630   -2.1060 n         1 MOL     -0.606935
     30 C10         5.7850   -0.6280   -3.0320 c3        1 MOL      0.203015
     31 C11         5.0520    0.5660   -3.5430 c         1 MOL      0.664831
     32 O6          4.0210    0.4160   -4.0570 o         1 MOL     -0.584114
     33 C12         6.3370   -1.4330   -4.1620 c3        1 MOL     -0.294832
     34 C13         7.0310   -2.6440   -3.7090 c         1 MOL      0.750503
     35 O7          6.5850   -3.2700   -2.7330 o         1 MOL     -0.703724
     36 O8          8.0710   -3.0150   -4.3510 o         1 MOL     -0.703724
     37 H13         7.8660   -0.3960   -2.4370 hn        1 MOL      0.328583
     38 H14         5.0370   -1.2830   -2.5900 h1        1 MOL      0.070552
     39 H15         7.0100   -0.8220   -4.7560 hc        1 MOL      0.043780
     40 H16         5.4580   -1.7210   -4.7410 hc        1 MOL      0.043780
     41 N4          5.5580    1.8000   -3.3420 n         1 MOL     -0.519696
     42 C14         5.0440    2.8420   -4.1810 c3        1 MOL      0.039234
     43 C15         3.6500    3.4360   -4.0650 c         1 MOL      0.476404
     44 O9          3.5010    4.6020   -4.4370 o         1 MOL     -0.573365
     45 H17         6.3260    2.0170   -2.7260 hn        1 MOL      0.324843
     46 H18         5.1800    2.4890   -5.2080 h1        1 MOL      0.052720
     47 H19         5.7000    3.7100   -4.1940 h1        1 MOL      0.052720
     48 N5          2.7430    2.7760   -3.2930 n         1 MOL     -0.239440
     49 C16         1.3270    3.0780   -3.1540 c3        1 MOL      0.106945
     50 C17         1.2150    4.1750   -2.0830 c         1 MOL      0.452791
     51 O10         1.0150    3.8480   -0.8820 o         1 MOL     -0.499892
     52 C18         0.3980    1.8980   -2.8990 c3        1 MOL     -0.132170
     53 C19        -1.1300    2.2010   -2.8420 c         1 MOL      0.540865
     54 N6         -1.5800    2.7210   -1.7270 n         1 MOL     -0.659384
     55 O11        -1.8750    2.0380   -3.8040 o         1 MOL     -0.561663
     56 H20         3.0370    1.8410   -3.0390 hn        1 MOL      0.159682
     57 H21         0.9610    3.5080   -4.0850 h1        1 MOL      0.013352
     58 H22         0.7140    1.4860   -1.9450 hc        1 MOL      0.078245
     59 H23         0.5160    1.1940   -3.7240 hc        1 MOL      0.078245
     60 H24        -0.9910    3.0570   -0.9760 hn        1 MOL      0.325564
     61 H25        -2.5540    2.9980   -1.6430 hn        1 MOL      0.325564
     62 N7          1.1780    5.4830   -2.3880 n         1 MOL     -0.400400
     63 C20         1.1210    6.4840   -1.3880 c3        1 MOL     -0.033404
     64 C21        -0.2670    6.5970   -0.7100 c         1 MOL      0.489056
     65 O12        -1.2900    6.0690   -1.1770 o         1 MOL     -0.459310
     66 H26         1.5150    5.7800   -3.3010 hn        1 MOL      0.307186
     67 H27         1.3380    7.4570   -1.8330 h1        1 MOL      0.071753
     68 H28         1.8720    6.2720   -0.6330 h1        1 MOL      0.071753
     69 N8         -0.3040    7.2930    0.4690 n         1 MOL     -0.321037
     70 C22        -1.5900    7.5260    1.0680 c3        1 MOL     -0.451126
     71 C23        -2.4450    6.3390    1.5370 c         1 MOL      0.466149
     72 O13        -3.6560    6.4960    1.5400 o         1 MOL     -0.558061
     73 C24        -1.4980    8.4930    2.3000 c3        1 MOL      0.592840
     74 C25        -0.7050    8.0120    3.5500 c3        1 MOL     -0.393304
     75 O14        -0.8080    9.6630    1.8010 oh        1 MOL     -0.687062
     76 H29         0.4870    7.7460    0.9110 hn        1 MOL      0.227048
     77 H30        -2.1460    8.0270    0.2820 h1        1 MOL      0.200007
     78 H31        -2.5140    8.6990    2.6550 h1        1 MOL      0.009605
     79 H32         0.0100    9.3550    1.4230 ho        1 MOL      0.395983
     80 H33         0.1130    7.3810    3.2010 hc        1 MOL      0.092568
     81 H34        -0.4180    8.8380    4.2060 hc        1 MOL      0.092568
     82 H35        -1.4320    7.4660    4.1590 hc        1 MOL      0.092568
     83 N9         -1.8930    5.1680    1.7980 n         1 MOL     -0.113525
     84 C26        -2.6260    3.8990    2.2120 c3        1 MOL      0.320836
     85 C27        -2.0360    2.6660    1.4860 c         1 MOL     -0.011621
     86 O15        -0.8140    2.7490    1.2570 o         1 MOL     -0.353289
     87 C28        -2.9050    3.6510    3.7070 c3        1 MOL      0.134528
     88 C29        -1.5970    3.3520    4.4840 c3        1 MOL     -0.182534
     89 C30        -3.7740    4.6760    4.4570 c3        1 MOL     -0.377387
     90 C31        -0.6180    4.5420    4.5150 c3        1 MOL     -0.125337
     91 H36        -0.8980    5.0420    1.7360 hn        1 MOL      0.195247
     92 H37        -3.6000    4.0600    1.7630 h1        1 MOL     -0.019041
     93 H38        -3.4950    2.7200    3.7020 hc        1 MOL     -0.031480
     94 H39        -1.1010    2.5480    3.9450 hc        1 MOL      0.085549
     95 H40        -1.8010    3.1060    5.5250 hc        1 MOL      0.085549
     96 H41        -3.9170    4.2490    5.4510 hc        1 MOL      0.092750
     97 H42        -3.3220    5.6630    4.4540 hc        1 MOL      0.092750
     98 H43        -4.6590    4.8030    3.8330 hc        1 MOL      0.092750
     99 H44         0.2140    4.1250    5.0800 hc        1 MOL      0.030025
    100 H45        -0.3300    4.7880    3.4920 hc        1 MOL      0.030025
    101 H46        -1.0430    5.3810    5.0760 hc        1 MOL      0.030025
    102 N10        -2.8390    1.6570    1.2260 n         1 MOL     -0.210140
    103 C32        -2.2660    0.4470    0.5820 c3        1 MOL      0.111802
    104 C33        -3.2740   -0.3240   -0.2170 c         1 MOL      0.588860
    105 O16        -3.1710   -1.5130   -0.3040 o         1 MOL     -0.493285
    106 C34        -1.5060   -0.3780    1.6350 c3        1 MOL     -0.400037
    107 C35        -0.4470   -1.3330    1.0550 c         1 MOL      0.803600
    108 O17         0.2180   -2.1760    1.7370 o         1 MOL     -0.739768
    109 O18        -0.2900   -1.2550   -0.2230 o         1 MOL     -0.739768
    110 H47        -3.8330    1.7320    1.3500 hn        1 MOL      0.235712
    111 H48        -1.5590    0.6520   -0.2270 h1        1 MOL      0.100243
    112 H49        -2.2510   -0.9030    2.2500 hc        1 MOL      0.110049
    113 H50        -0.8440    0.2520    2.2220 hc        1 MOL      0.110049
    114 N11        -4.2080    0.3150   -0.8950 n         1 MOL     -0.428584
    115 C36        -5.2360   -0.4270   -1.6520 c3        1 MOL      0.201175
    116 C37        -6.0610   -1.3460   -0.7540 c         1 MOL      0.133616
    117 O19        -6.4910   -0.8420    0.3030 o         1 MOL     -0.507572
    118 C38        -6.0970    0.6060   -2.3640 c3        1 MOL     -0.301797
    119 C39        -7.3840   -0.0450   -2.9060 ca        1 MOL      0.114170
    120 C40        -7.4420   -0.6500   -4.2130 ca        1 MOL     -0.205335
    121 C41        -8.5470   -0.2050   -2.0680 ca        1 MOL     -0.205335
    122 C42        -8.6360   -1.3690   -4.5790 ca        1 MOL     -0.091883
    123 C43        -9.6850   -0.9750   -2.4180 ca        1 MOL     -0.091883
    124 C44        -9.7380   -1.4830   -3.6850 ca        1 MOL     -0.128440
    125 H51        -4.2580    1.3240   -0.9670 hn        1 MOL      0.226308
    126 H52        -4.6540   -1.0760   -2.3130 h1        1 MOL      0.051505
    127 H53        -5.5410    1.0380   -3.1980 hc        1 MOL      0.127604
    128 H54        -6.3690    1.3860   -1.6500 hc        1 MOL      0.127604
    129 H55        -6.5430   -0.6160   -4.8130 ha        1 MOL      0.141931
    130 H56        -8.4930    0.2070   -1.0610 ha        1 MOL      0.141931
    131 H57        -8.6490   -1.8490   -5.5510 ha        1 MOL      0.107254
    132 H58       -10.4590   -1.2470   -1.7180 ha        1 MOL      0.107254
    133 H59       -10.6330   -2.0150   -3.9560 ha        1 MOL      0.101786
    134 N12        -6.3620   -2.5690   -1.1990 n         1 MOL      0.307908
    135 C45        -7.1780   -3.5010   -0.4100 c3        1 MOL     -0.072920
    136 C46        -6.5790   -4.0680    0.9240 c         1 MOL      0.285589
    137 O20        -7.3030   -4.5510    1.7850 o         1 MOL     -0.520187
    138 C47        -7.2960   -4.7910   -1.3480 c3        1 MOL     -0.226856
    139 C48        -5.9990   -4.7150   -2.1140 c3        1 MOL      0.214488
    140 C49        -5.7680   -3.2540   -2.3320 c3        1 MOL     -0.250578
    141 H60        -8.0820   -3.0410   -0.0290 h1        1 MOL      0.090694
    142 H61        -7.2600   -5.6870   -0.7410 hc        1 MOL      0.074655
    143 H62        -8.1090   -4.5640   -2.0300 hc        1 MOL      0.074655
    144 H63        -5.1520   -5.1760   -1.5900 hc        1 MOL     -0.019804
    145 H64        -6.1580   -5.2610   -3.0410 hc        1 MOL     -0.019804
    146 H65        -4.7010   -3.0520   -2.3490 h1        1 MOL      0.057500
    147 H66        -6.2570   -2.8770   -3.2330 h1        1 MOL      0.057500
    148 N13        -5.3100   -3.8650    1.1770 n         1 MOL      0.113895
    149 C50        -4.5410   -4.5430    2.2730 c3        1 MOL     -0.568572
    150 C51        -4.6960   -3.7790    3.6180 c         1 MOL      0.561290
    151 O21        -4.4700   -4.3280    4.7200 o         1 MOL     -0.513459
    152 C52        -3.0690   -4.5170    1.8510 c3        1 MOL      0.367935
    153 C53        -2.6860   -5.2420    0.5430 c3        1 MOL      0.003559
    154 C54        -1.1730   -5.0980    0.3560 c         1 MOL      0.427779
    155 O22        -0.4570   -5.6470    1.2340 o         1 MOL     -0.632390
    156 O23        -0.6990   -4.4370   -0.6300 o         1 MOL     -0.632390
    157 H67        -4.7050   -3.3050    0.5950 hn        1 MOL      0.105268
    158 H68        -4.9510   -5.5420    2.4330 h1        1 MOL      0.216190
    159 H69        -2.5000   -4.8930    2.7060 hc        1 MOL     -0.009886
    160 H70        -2.7390   -3.4790    1.8000 hc        1 MOL     -0.009886
    161 H71        -3.2260   -4.8750   -0.3310 hc        1 MOL     -0.030304
    162 H72        -2.9920   -6.2630    0.7610 hc        1 MOL     -0.030304
    163 N14        -5.2160   -2.4730    3.5700 n         1 MOL     -0.335582
    164 C55        -5.2350   -1.5790    4.7630 c3        1 MOL     -0.078547
    165 H73        -5.2120   -2.1840    5.6700 h1        1 MOL      0.060644
    166 H74        -4.3650   -0.9240    4.7420 h1        1 MOL      0.060644
    167 H75        -6.1440   -0.9780    4.7520 h1        1 MOL      0.060644
    168 H76        -5.3870   -2.0060    2.6940 hn        1 MOL      0.229208
    169 Ca1         1.6770   -2.9670   -0.4690 Ca        1 MOL      1.725571
    170 O24         3.3090   -3.5610    1.5460 oh        1 MOL     -0.831827
    171 H77         3.9330   -2.8580    1.7310 ho        1 MOL      0.401180
    172 H78         3.2050   -4.0050    2.3880 ho        1 MOL      0.401180
    173 O25         1.8040   -4.1480   -2.9860 oh        1 MOL     -0.831827
    174 H79         2.3000   -3.7460   -3.7080 ho        1 MOL      0.401180
    175 H80         1.8760   -5.0940   -3.1460 ho        1 MOL      0.401180
    176 O26         1.9500   -5.7040   -0.1460 oh        1 MOL     -0.831827
    177 H81         1.8010   -5.8100   -1.0840 ho        1 MOL      0.401180
    178 H82         1.1070   -5.9050    0.2490 ho        1 MOL      0.401180
    179 O27         3.1040   -0.7410    0.1240 oh        1 MOL     -0.831827
    180 H83         4.0350   -0.8090   -0.0860 ho        1 MOL      0.401180
    181 H84         2.9940    0.1690    0.4210 ho        1 MOL      0.401180
    182 O28         4.4100   -3.2180   -1.1550 oh        1 MOL     -0.831827
    183 H85         5.0210   -3.0670   -1.8700 ho        1 MOL      0.401180
    184 H86         4.8420   -2.8400   -0.3800 ho        1 MOL      0.401180
    185 O29         2.0110   -1.2180   -2.6860 oh        1 MOL     -0.831827
    186 H87         2.7230   -0.5980   -2.8680 ho        1 MOL      0.401180
    187 H88         1.3310   -0.9850   -3.3240 ho        1 MOL      0.401180
@<TRIPOS>BOND
     1    1    2 1   
     2    1    4 1   
     3    1    5 1   
     4    1    6 1   
     5    2    3 2   
     6    2    7 1   
     7    7    8 1   
     8    7   15 1   
     9    8    9 1   
    10    8   11 1   
    11    8   16 1   
    12    9   10 2   
    13    9   19 1   
    14   11   12 1   
    15   11   17 1   
    16   11   18 1   
    17   12   13 1   
    18   12   14 1   
    19   19   20 1   
    20   19   24 1   
    21   20   21 1   
    22   20   23 1   
    23   20   25 1   
    24   21   22 2   
    25   21   29 1   
    26   23   26 1   
    27   23   27 1   
    28   23   28 1   
    29   29   30 1   
    30   29   37 1   
    31   30   31 1   
    32   30   33 1   
    33   30   38 1   
    34   31   32 2   
    35   31   41 1   
    36   33   34 1   
    37   33   39 1   
    38   33   40 1   
    39   34   35 1   
    40   34   36 1   
    41   41   42 1   
    42   41   45 1   
    43   42   43 1   
    44   42   46 1   
    45   42   47 1   
    46   43   44 2   
    47   43   48 1   
    48   48   49 1   
    49   48   56 1   
    50   49   50 1   
    51   49   52 1   
    52   49   57 1   
    53   50   51 2   
    54   50   62 1   
    55   52   53 1   
    56   52   58 1   
    57   52   59 1   
    58   53   54 1   
    59   53   55 2   
    60   54   60 1   
    61   54   61 1   
    62   62   63 1   
    63   62   66 1   
    64   63   64 1   
    65   63   67 1   
    66   63   68 1   
    67   64   65 2   
    68   64   69 1   
    69   69   70 1   
    70   69   76 1   
    71   70   71 1   
    72   70   73 1   
    73   70   77 1   
    74   71   72 2   
    75   71   83 1   
    76   73   74 1   
    77   73   75 1   
    78   73   78 1   
    79   74   80 1   
    80   74   81 1   
    81   74   82 1   
    82   75   79 1   
    83   83   84 1   
    84   83   91 1   
    85   84   85 1   
    86   84   87 1   
    87   84   92 1   
    88   85   86 2   
    89   85  102 1   
    90   87   88 1   
    91   87   89 1   
    92   87   93 1   
    93   88   90 1   
    94   88   94 1   
    95   88   95 1   
    96   89   96 1   
    97   89   97 1   
    98   89   98 1   
    99   90   99 1   
   100   90  100 1   
   101   90  101 1   
   102  102  103 1   
   103  102  110 1   
   104  103  104 1   
   105  103  106 1   
   106  103  111 1   
   107  104  105 2   
   108  104  114 1   
   109  106  107 1   
   110  106  112 1   
   111  106  113 1   
   112  107  108 1   
   113  107  109 1   
   114  114  115 1   
   115  114  125 1   
   116  115  116 1   
   117  115  118 1   
   118  115  126 1   
   119  116  117 2   
   120  116  134 1   
   121  118  119 1   
   122  118  127 1   
   123  118  128 1   
   124  119  120 ar  
   125  119  121 ar  
   126  120  122 ar  
   127  120  129 1   
   128  121  123 ar  
   129  121  130 1   
   130  122  124 ar  
   131  122  131 1   
   132  123  124 ar  
   133  123  132 1   
   134  124  133 1   
   135  134  135 1   
   136  134  140 1   
   137  135  136 1   
   138  135  138 1   
   139  135  141 1   
   140  136  137 2   
   141  136  148 1   
   142  138  139 1   
   143  138  142 1   
   144  138  143 1   
   145  139  140 1   
   146  139  144 1   
   147  139  145 1   
   148  140  146 1   
   149  140  147 1   
   150  148  149 1   
   151  148  157 1   
   152  149  150 1   
   153  149  152 1   
   154  149  158 1   
   155  150  151 2   
   156  150  163 1   
   157  152  153 1   
   158  152  159 1   
   159  152  160 1   
   160  153  154 1   
   161  153  161 1   
   162  153  162 1   
   163  154  155 1   
   164  154  156 1   
   165  163  164 1   
   166  163  168 1   
   167  164  165 1   
   168  164  166 1   
   169  164  167 1   
   170  170  171 1   
   171  170  172 1   
   172  173  174 1   
   173  173  175 1   
   174  176  177 1   
   175  176  178 1   
   176  179  180 1   
   177  179  181 1   
   178  182  183 1   
   179  182  184 1   
   180  185  186 1   
   181  185  187 1   
@<TRIPOS>SUBSTRUCTURE
     1 MOL         1 TEMP              0 ****  ****    0 ROOT
