@<TRIPOS>MOLECULE
MOL
  189   185     1     0     0
SMALL
resp


@<TRIPOS>ATOM
      1 C1         -6.5430   -2.8390    3.2570 c3        1 MOL      0.011826
      2 C2         -5.4180   -2.8550    2.1980 c         1 MOL      0.672544
      3 O1         -4.7140   -1.8210    2.0100 o         1 MOL     -0.584048
      4 H1         -6.3390   -3.5960    4.0140 hc        1 MOL     -0.031507
      5 H2         -6.5850   -1.8570    3.7290 hc        1 MOL     -0.031507
      6 H3         -7.4980   -3.0520    2.7770 hc        1 MOL     -0.031507
      7 N1         -5.2510   -3.8460    1.3810 n         1 MOL     -0.541419
      8 C3         -4.2070   -3.9540    0.3600 c3        1 MOL      0.141757
      9 C4         -2.7340   -3.7780    0.8270 c         1 MOL      0.688485
     10 O2         -1.9130   -3.7550   -0.0240 o         1 MOL     -0.546912
     11 C5         -4.5350   -3.0960   -0.8780 c3        1 MOL     -0.803264
     12 C6         -6.0060   -3.0970   -1.3400 c         1 MOL      0.919488
     13 O3         -6.6430   -2.0680   -1.3620 o         1 MOL     -0.728933
     14 O4         -6.5260   -4.2400   -1.4730 o         1 MOL     -0.728933
     15 H4         -5.9920   -4.5190    1.2560 hn        1 MOL      0.251762
     16 H5         -4.2540   -4.9490   -0.0730 h1        1 MOL      0.092691
     17 H6         -3.9590   -3.5680   -1.6790 hc        1 MOL      0.233010
     18 H7         -4.2530   -2.0660   -0.6830 hc        1 MOL      0.233010
     19 N2         -2.4160   -3.8850    2.1290 n         1 MOL     -0.543220
     20 C7         -1.0680   -3.9130    2.7180 c3        1 MOL      0.008952
     21 C8         -0.4330   -5.3230    2.5110 c         1 MOL      0.638943
     22 O5         -0.8710   -6.3000    3.0070 o         1 MOL     -0.599560
     23 C9         -0.9910   -3.5700    4.2220 c3        1 MOL      0.124745
     24 C10        -2.0220   -2.4180    4.5050 c3        1 MOL     -0.053307
     25 C11         0.5070   -3.3260    4.5950 c3        1 MOL      0.064504
     26 C12        -2.1670   -1.8400    5.8850 c3        1 MOL     -0.199068
     27 H8         -3.1670   -4.2760    2.6730 hn        1 MOL      0.215456
     28 H9         -0.4520   -3.1680    2.2270 h1        1 MOL      0.137012
     29 H10        -1.2040   -4.4090    4.8810 hc        1 MOL     -0.038347
     30 H11        -3.0470   -2.6610    4.2070 hc        1 MOL      0.076840
     31 H12        -1.7650   -1.5770    3.8670 hc        1 MOL      0.076840
     32 H13         0.5960   -3.0730    5.6450 hc        1 MOL     -0.030009
     33 H14         1.2320   -4.1330    4.5240 hc        1 MOL     -0.030009
     34 H15         0.7860   -2.4260    4.0350 hc        1 MOL     -0.030009
     35 H16        -1.2390   -1.3340    6.1820 hc        1 MOL      0.039733
     36 H17        -2.9860   -1.1230    5.9650 hc        1 MOL      0.039733
     37 H18        -2.4700   -2.6120    6.5980 hc        1 MOL      0.039733
     38 N3          0.7100   -5.5240    1.7950 n         1 MOL     -0.586857
     39 C13         1.5750   -4.5200    1.0850 c3        1 MOL      0.107556
     40 C14         2.0130   -5.0710   -0.2790 c         1 MOL      0.480678
     41 O6          2.4820   -6.2340   -0.2760 o         1 MOL     -0.526238
     42 C15         2.8660   -4.1050    1.9040 c3        1 MOL     -0.187215
     43 C16         4.0030   -3.7390    0.9960 c         1 MOL      0.634531
     44 O7          4.9700   -4.5110    0.7770 o         1 MOL     -0.651796
     45 O8          3.9340   -2.6960    0.2800 o         1 MOL     -0.651796
     46 H19         1.0990   -6.4430    1.9470 hn        1 MOL      0.335366
     47 H20         0.9960   -3.6440    0.8030 h1        1 MOL      0.004513
     48 H21         3.2040   -4.9560    2.4930 hc        1 MOL      0.048628
     49 H22         2.6430   -3.2390    2.5170 hc        1 MOL      0.048628
     50 N4          1.8160   -4.2510   -1.2590 n         1 MOL     -0.283286
     51 C17         1.9860   -4.4990   -2.6710 c3        1 MOL     -0.185814
     52 C18         3.3210   -4.1800   -3.3440 c         1 MOL      0.580537
     53 O9          3.6670   -4.5890   -4.4610 o         1 MOL     -0.600107
     54 H23         1.3670   -3.3640   -1.0710 hn        1 MOL      0.298544
     55 H24         1.2480   -3.9060   -3.2160 h1        1 MOL      0.095332
     56 H25         1.7610   -5.5430   -2.8810 h1        1 MOL      0.095332
     57 N5          4.1980   -3.4150   -2.6220 n         1 MOL     -0.274507
     58 C19         5.4260   -2.7470   -3.3280 c3        1 MOL     -0.194485
     59 C20         6.6920   -2.5830   -2.3840 c         1 MOL      0.387862
     60 O10         7.8060   -2.4240   -2.8000 o         1 MOL     -0.570171
     61 C21         5.0490   -1.3820   -3.9200 c3        1 MOL     -0.089734
     62 C22         4.2980   -0.5350   -2.9190 c         1 MOL      0.753271
     63 O11         4.9100    0.1300   -2.0530 o         1 MOL     -0.682533
     64 O12         3.0680   -0.4610   -3.0650 o         1 MOL     -0.682533
     65 H26         4.0120   -2.9840   -1.7200 hn        1 MOL      0.237025
     66 H27         5.7380   -3.5060   -4.0480 h1        1 MOL      0.137790
     67 H28         4.3900   -1.4070   -4.7980 hc        1 MOL      0.022204
     68 H29         5.8790   -0.7760   -4.2990 hc        1 MOL      0.022204
     69 N6          6.4410   -2.6260   -1.1120 n         1 MOL      0.055606
     70 C23         7.2730   -2.2920   -0.0080 c3        1 MOL     -0.206257
     71 C24         7.7430   -0.8190    0.0050 c         1 MOL      0.512351
     72 O13         8.6560   -0.5800    0.7830 o         1 MOL     -0.619220
     73 H30         5.5510   -3.0010   -0.8030 hn        1 MOL      0.071898
     74 H31         8.0950   -3.0050    0.0630 h1        1 MOL      0.089307
     75 H32         6.6280   -2.4080    0.8670 h1        1 MOL      0.089307
     76 N7          7.3000    0.1210   -0.8710 n         1 MOL      0.114886
     77 C25         7.8580    1.5420   -0.9280 c3        1 MOL      0.194855
     78 C26         7.7040    2.3820    0.3430 c         1 MOL      0.381722
     79 O14         8.4120    3.4220    0.5080 o         1 MOL     -0.513846
     80 C27         9.2670    1.4400   -1.5400 c3        1 MOL     -0.100502
     81 C28         9.3350    0.7920   -2.9620 c3        1 MOL      0.003298
     82 C29        10.7010    1.0790   -3.6200 c         1 MOL      0.619652
     83 N8         10.9250    0.5340   -4.8290 n         1 MOL     -0.806794
     84 O15        11.5480    1.9130   -3.2340 o         1 MOL     -0.566777
     85 H33         6.5200   -0.0530   -1.4830 hn        1 MOL     -0.021298
     86 H34         7.2150    2.0810   -1.6300 h1        1 MOL      0.064658
     87 H35         9.8570    0.8030   -0.8850 hc        1 MOL      0.012802
     88 H36         9.5030    2.5010   -1.6140 hc        1 MOL      0.012802
     89 H37         8.4770    1.2840   -3.4220 hc        1 MOL     -0.006927
     90 H38         9.1350   -0.2790   -2.9530 hc        1 MOL     -0.006927
     91 H39        10.2320   -0.0220   -5.3030 hn        1 MOL      0.345560
     92 H40        11.8880    0.5400   -5.1390 hn        1 MOL      0.345560
     93 N9          6.8130    1.9750    1.2670 n         1 MOL     -0.420440
     94 C30         6.5770    2.5200    2.6970 c3        1 MOL     -0.019759
     95 C31         5.1170    2.8290    2.9550 c         1 MOL      0.646178
     96 O16         4.8700    3.5070    3.9950 o         1 MOL     -0.610729
     97 C32         7.1070    1.4520    3.7780 c3        1 MOL      0.411718
     98 C33         6.4240    0.1050    3.8110 c3        1 MOL     -0.415536
     99 C34         8.6260    1.2510    3.5970 c3        1 MOL     -0.415536
    100 H41         6.2340    1.1900    1.0010 hn        1 MOL      0.140270
    101 H42         7.1400    3.4320    2.8640 h1        1 MOL      0.083241
    102 H43         7.0040    1.9300    4.7490 hc        1 MOL     -0.078976
    103 H44         6.4490   -0.4120    2.8480 hc        1 MOL      0.094343
    104 H45         6.7360   -0.4590    4.6840 hc        1 MOL      0.094343
    105 H46         5.3510    0.1970    3.9390 hc        1 MOL      0.094343
    106 H47         9.1440    2.1720    3.8570 hc        1 MOL      0.094343
    107 H48         8.9190    0.4750    4.3070 hc        1 MOL      0.094343
    108 H49         8.9110    0.9570    2.5860 hc        1 MOL      0.094343
    109 N10         4.1780    2.3380    2.0780 n         1 MOL     -0.653401
    110 C35         2.7380    2.6230    2.3670 c3        1 MOL      0.238729
    111 C36         1.9060    2.8270    1.0060 c         1 MOL      0.563959
    112 O17         2.4780    2.9570   -0.0580 o         1 MOL     -0.527875
    113 C37         2.3300    1.3370    2.9990 c3        1 MOL     -0.188475
    114 C38         1.1660    1.5140    3.9840 c         1 MOL      0.552619
    115 N11         1.3870    1.4560    5.2900 n         1 MOL     -0.697929
    116 O18         0.0060    1.7650    3.5660 o         1 MOL     -0.526845
    117 H50         4.5510    1.7140    1.3670 hn        1 MOL      0.402170
    118 H51         2.6380    3.5050    3.0120 h1        1 MOL      0.067402
    119 H52         3.0680    1.1490    3.7780 hc        1 MOL      0.060102
    120 H53         2.2430    0.5370    2.2680 hc        1 MOL      0.060102
    121 H54         2.2990    1.1430    5.6170 hn        1 MOL      0.339059
    122 H55         0.6610    1.4460    5.9890 hn        1 MOL      0.339059
    123 N12         0.5890    2.7840    1.0280 n         1 MOL     -0.724587
    124 C39        -0.2390    2.9030   -0.1910 c3        1 MOL      0.409553
    125 C40        -1.5460    3.6470    0.1340 c         1 MOL      0.455042
    126 O19        -2.2180    3.3140    1.0540 o         1 MOL     -0.576737
    127 C41        -0.5550    1.4770   -0.7220 c3        1 MOL      0.041425
    128 C42        -1.7060    1.3580   -1.6740 ca        1 MOL      0.011264
    129 C43        -1.4470    1.7640   -3.0130 ca        1 MOL     -0.164030
    130 C44        -3.0150    0.9150   -1.2280 ca        1 MOL     -0.164030
    131 C45        -2.4990    1.6700   -3.9450 ca        1 MOL     -0.191888
    132 C46        -3.9890    0.7640   -2.2470 ca        1 MOL     -0.191888
    133 C47        -3.7610    1.2010   -3.5770 ca        1 MOL      0.251806
    134 O20        -4.6690    0.9470   -4.5550 oh        1 MOL     -0.532867
    135 H56         0.0780    2.8390    1.8940 hn        1 MOL      0.328390
    136 H57         0.2470    3.4980   -0.9550 h1        1 MOL     -0.005613
    137 H58        -0.6730    0.7710    0.0930 hc        1 MOL      0.035390
    138 H59         0.2730    1.2000   -1.3680 hc        1 MOL      0.035390
    139 H60        -0.5160    2.2810   -3.1610 ha        1 MOL      0.150692
    140 H61        -3.2330    0.5390   -0.2420 ha        1 MOL      0.150692
    141 H62        -2.3120    1.9220   -4.9830 ha        1 MOL      0.132622
    142 H63        -4.9060    0.2600   -2.0030 ha        1 MOL      0.132622
    143 H64        -5.4930    0.7310   -4.1180 ho        1 MOL      0.409652
    144 N13        -1.9760    4.5230   -0.7910 n         1 MOL     -0.379465
    145 C48        -3.2200    5.4230   -0.7390 c3        1 MOL      0.083090
    146 C49        -4.1730    5.0530   -1.9530 c         1 MOL      0.567408
    147 O21        -3.7970    5.3810   -3.0850 o         1 MOL     -0.560652
    148 C50        -2.7540    6.8870   -0.8040 c3        1 MOL      0.151368
    149 C51        -1.8270    7.3260    0.3810 c3        1 MOL     -0.133504
    150 C52        -1.3760    8.7320    0.1040 c         1 MOL      0.653844
    151 O22        -2.2570    9.5940   -0.0260 o         1 MOL     -0.664911
    152 O23        -0.1850    8.9460   -0.1110 o         1 MOL     -0.664911
    153 H65        -1.3500    4.6080   -1.5870 hn        1 MOL      0.223254
    154 H66        -3.7480    5.2740    0.2100 h1        1 MOL      0.097172
    155 H67        -3.6540    7.5100   -0.8040 hc        1 MOL     -0.023043
    156 H68        -2.2620    7.0390   -1.7580 hc        1 MOL     -0.023043
    157 H69        -0.9090    6.7320    0.3500 hc        1 MOL      0.001603
    158 H70        -2.3160    7.2330    1.3500 hc        1 MOL      0.001603
    159 N14        -5.4210    4.4430   -1.7760 n         1 MOL     -0.511878
    160 C53        -5.7870    3.5910   -0.6220 c3        1 MOL     -0.058236
    161 C54        -6.0700    4.3020    0.7130 c         1 MOL      0.437167
    162 O24        -6.4390    5.4290    0.6280 o         1 MOL     -0.513052
    163 C55        -6.9130    2.6060   -1.0300 c3        1 MOL      0.010633
    164 C56        -7.0040    1.3770   -0.1560 c3        1 MOL      0.208785
    165 C57        -8.2360    0.5530   -0.3860 c         1 MOL      0.517804
    166 O25        -8.5820    0.1990   -1.5450 o         1 MOL     -0.765102
    167 O26        -8.7130   -0.1840    0.5460 o         1 MOL     -0.765102
    168 H71        -6.0560    4.5610   -2.5570 hn        1 MOL      0.293809
    169 H72        -4.8760    2.9890   -0.5640 h1        1 MOL     -0.002690
    170 H73        -6.8910    2.2460   -2.0630 hc        1 MOL      0.028417
    171 H74        -7.8320    3.1430   -0.8390 hc        1 MOL      0.028417
    172 H75        -6.9980    1.7710    0.8620 hc        1 MOL     -0.039208
    173 H76        -6.0920    0.8190   -0.3490 hc        1 MOL     -0.039208
    174 N15        -5.7850    3.7020    1.8740 n         1 MOL     -0.118477
    175 C58        -5.7780    4.2910    3.1760 c3        1 MOL     -0.435841
    176 H77        -5.5030    5.3430    3.0970 h1        1 MOL      0.147230
    177 H78        -6.7700    4.2090    3.6190 h1        1 MOL      0.147230
    178 H79        -5.0540    3.7740    3.8060 h1        1 MOL      0.147230
    179 H80        -5.5010    2.7260    1.8410 hn        1 MOL      0.239518
    180 Ca1        -9.0810   -2.2730   -1.0500 Ca        1 MOL      1.584704
    181 O27       -11.5730   -1.5830   -1.7730 oh        1 MOL     -0.768065
    182 H81       -12.3580   -1.2700   -2.2190 ho        1 MOL      0.363336
    183 H82       -11.8570   -1.7310   -0.8670 ho        1 MOL      0.363336
    184 O28        -9.9940   -4.6920   -1.4420 oh        1 MOL     -0.768065
    185 H83        -9.4810   -5.4650   -1.2250 ho        1 MOL      0.363336
    186 H84       -10.7380   -5.0130   -1.9450 ho        1 MOL      0.363336
    187 O29        -9.1880   -2.5710   -3.7620 oh        1 MOL     -0.768065
    188 H85        -8.4870   -3.1100   -4.1260 ho        1 MOL      0.363336
    189 H86        -9.6000   -2.1540   -4.5230 ho        1 MOL      0.363336
@<TRIPOS>BOND
     1    1    2 1   
     2    1    4 1   
     3    1    5 1   
     4    1    6 1   
     5    2    3 2   
     6    2    7 1   
     7    7    8 1   
     8    7   15 1   
     9    8    9 1   
    10    8   11 1   
    11    8   16 1   
    12    9   10 2   
    13    9   19 1   
    14   11   12 1   
    15   11   17 1   
    16   11   18 1   
    17   12   13 1   
    18   12   14 1   
    19   19   20 1   
    20   19   27 1   
    21   20   21 1   
    22   20   23 1   
    23   20   28 1   
    24   21   22 2   
    25   21   38 1   
    26   23   24 1   
    27   23   25 1   
    28   23   29 1   
    29   24   26 1   
    30   24   30 1   
    31   24   31 1   
    32   25   32 1   
    33   25   33 1   
    34   25   34 1   
    35   26   35 1   
    36   26   36 1   
    37   26   37 1   
    38   38   39 1   
    39   38   46 1   
    40   39   40 1   
    41   39   42 1   
    42   39   47 1   
    43   40   41 2   
    44   40   50 1   
    45   42   43 1   
    46   42   48 1   
    47   42   49 1   
    48   43   44 1   
    49   43   45 1   
    50   50   51 1   
    51   50   54 1   
    52   51   52 1   
    53   51   55 1   
    54   51   56 1   
    55   52   53 2   
    56   52   57 1   
    57   57   58 1   
    58   57   65 1   
    59   58   59 1   
    60   58   61 1   
    61   58   66 1   
    62   59   60 2   
    63   59   69 1   
    64   61   62 1   
    65   61   67 1   
    66   61   68 1   
    67   62   63 1   
    68   62   64 1   
    69   69   70 1   
    70   69   73 1   
    71   70   71 1   
    72   70   74 1   
    73   70   75 1   
    74   71   72 2   
    75   71   76 1   
    76   76   77 1   
    77   76   85 1   
    78   77   78 1   
    79   77   80 1   
    80   77   86 1   
    81   78   79 2   
    82   78   93 1   
    83   80   81 1   
    84   80   87 1   
    85   80   88 1   
    86   81   82 1   
    87   81   89 1   
    88   81   90 1   
    89   82   83 1   
    90   82   84 2   
    91   83   91 1   
    92   83   92 1   
    93   93   94 1   
    94   93  100 1   
    95   94   95 1   
    96   94   97 1   
    97   94  101 1   
    98   95   96 2   
    99   95  109 1   
   100   97   98 1   
   101   97   99 1   
   102   97  102 1   
   103   98  103 1   
   104   98  104 1   
   105   98  105 1   
   106   99  106 1   
   107   99  107 1   
   108   99  108 1   
   109  109  110 1   
   110  109  117 1   
   111  110  111 1   
   112  110  113 1   
   113  110  118 1   
   114  111  112 2   
   115  111  123 1   
   116  113  114 1   
   117  113  119 1   
   118  113  120 1   
   119  114  115 1   
   120  114  116 2   
   121  115  121 1   
   122  115  122 1   
   123  123  124 1   
   124  123  135 1   
   125  124  125 1   
   126  124  127 1   
   127  124  136 1   
   128  125  126 2   
   129  125  144 1   
   130  127  128 1   
   131  127  137 1   
   132  127  138 1   
   133  128  129 ar  
   134  128  130 ar  
   135  129  131 ar  
   136  129  139 1   
   137  130  132 ar  
   138  130  140 1   
   139  131  133 ar  
   140  131  141 1   
   141  132  133 ar  
   142  132  142 1   
   143  133  134 1   
   144  134  143 1   
   145  144  145 1   
   146  144  153 1   
   147  145  146 1   
   148  145  148 1   
   149  145  154 1   
   150  146  147 2   
   151  146  159 1   
   152  148  149 1   
   153  148  155 1   
   154  148  156 1   
   155  149  150 1   
   156  149  157 1   
   157  149  158 1   
   158  150  151 1   
   159  150  152 1   
   160  159  160 1   
   161  159  168 1   
   162  160  161 1   
   163  160  163 1   
   164  160  169 1   
   165  161  162 2   
   166  161  174 1   
   167  163  164 1   
   168  163  170 1   
   169  163  171 1   
   170  164  165 1   
   171  164  172 1   
   172  164  173 1   
   173  165  166 1   
   174  165  167 1   
   175  174  175 1   
   176  174  179 1   
   177  175  176 1   
   178  175  177 1   
   179  175  178 1   
   180  181  182 1   
   181  181  183 1   
   182  184  185 1   
   183  184  186 1   
   184  187  188 1   
   185  187  189 1   
@<TRIPOS>SUBSTRUCTURE
     1 MOL         1 TEMP              0 ****  ****    0 ROOT
