@<TRIPOS>MOLECULE
MOL
  192   187     1     0     0
SMALL
resp


@<TRIPOS>ATOM
      1 C1         12.3780    4.1230   -2.8110 c3        1 MOL     -0.410477
      2 C2         12.0870    2.9550   -1.8690 c         1 MOL      0.675127
      3 O1         12.9660    2.0880   -1.7180 o         1 MOL     -0.603944
      4 H1         13.3640    3.9930   -3.2560 hc        1 MOL      0.111268
      5 H2         11.6250    4.1530   -3.5980 hc        1 MOL      0.111268
      6 H3         12.3540    5.0580   -2.2500 hc        1 MOL      0.111268
      7 N1         10.9540    2.8390   -1.2600 n         1 MOL     -0.269250
      8 C3         10.6040    1.7760   -0.2060 c3        1 MOL     -0.563237
      9 C4          9.2480    1.0910   -0.4470 c         1 MOL      0.740322
     10 O2          8.2400    1.7630   -0.6950 o         1 MOL     -0.656519
     11 C5         10.7240    2.4230    1.1480 c3        1 MOL      0.286361
     12 C6         10.3110    3.8930    1.2790 c         1 MOL      0.598906
     13 O3          9.3210    4.3100    0.6640 o         1 MOL     -0.672979
     14 O4         10.7710    4.4460    2.2660 o         1 MOL     -0.672979
     15 H4         10.3260    3.5740   -1.5570 hn        1 MOL      0.110030
     16 H5         11.3910    1.0200   -0.1740 h1        1 MOL      0.193179
     17 H6         11.7340    2.2820    1.5370 hc        1 MOL     -0.002468
     18 H7         10.0610    1.8160    1.7680 hc        1 MOL     -0.002468
     19 N2          9.1720   -0.2520   -0.3220 n         1 MOL     -0.399407
     20 C7          7.9680   -0.9910   -0.6090 c3        1 MOL     -0.071204
     21 C8          7.0990   -1.0210    0.6290 c         1 MOL      0.532433
     22 O5          7.4670   -1.6420    1.6450 o         1 MOL     -0.553906
     23 C9          8.2600   -2.4600   -1.0550 c3        1 MOL      0.020954
     24 C10         7.1710   -3.3690   -1.4050 c3        1 MOL     -0.102851
     25 C11         6.3090   -2.9510   -2.6650 c3        1 MOL     -0.190613
     26 C12         7.2600   -2.8290   -3.8680 c3        1 MOL      0.165337
     27 N3          6.5010   -2.7090   -5.1030 n4        1 MOL     -0.337966
     28 H8         10.0100   -0.7380   -0.0340 hn        1 MOL      0.293988
     29 H9          7.4460   -0.4120   -1.3730 h1        1 MOL      0.090097
     30 H10         8.8740   -2.9830   -0.3230 hc        1 MOL      0.020040
     31 H11         8.9190   -2.3780   -1.9160 hc        1 MOL      0.020040
     32 H12         6.4880   -3.5160   -0.5600 hc        1 MOL      0.100948
     33 H13         7.6730   -4.3320   -1.5090 hc        1 MOL      0.100948
     34 H14         5.7240   -2.0380   -2.5540 hc        1 MOL      0.069961
     35 H15         5.6490   -3.7950   -2.8700 hc        1 MOL      0.069961
     36 H16         7.8700   -3.7210   -4.0040 hx        1 MOL      0.036375
     37 H17         7.7810   -1.8670   -3.8270 hx        1 MOL      0.036375
     38 H18         7.0650   -2.9430   -5.9090 hn        1 MOL      0.319676
     39 H19         5.7080   -3.3290   -5.0400 hn        1 MOL      0.319676
     40 H20         6.1280   -1.7820   -5.2390 hn        1 MOL      0.319676
     41 N4          6.0780   -0.2490    0.5910 n         1 MOL     -0.128209
     42 C13         5.0080   -0.0870    1.5930 c3        1 MOL     -0.149588
     43 C14         3.6930    0.2910    0.8290 c         1 MOL      0.371167
     44 O6          3.7650    0.6120   -0.3400 o         1 MOL     -0.553032
     45 C15         5.4340    0.9740    2.6720 c3        1 MOL     -0.179558
     46 C16         5.8260    2.3000    2.0540 c         1 MOL      0.678971
     47 O7          4.9790    3.0140    1.4650 o         1 MOL     -0.704632
     48 O8          7.0000    2.7620    2.1130 o         1 MOL     -0.704632
     49 H21         6.0060    0.2890   -0.2620 hn        1 MOL      0.121604
     50 H22         4.8820   -1.0710    2.0370 h1        1 MOL      0.162670
     51 H23         6.2350    0.6450    3.3220 hc        1 MOL      0.093966
     52 H24         4.5400    1.1610    3.2800 hc        1 MOL      0.093966
     53 N5          2.4640    0.1350    1.3590 n         1 MOL     -0.215219
     54 C17         2.1880   -0.5210    2.5630 c3        1 MOL     -0.275115
     55 C18         2.4760   -1.9860    2.3990 c         1 MOL      0.576077
     56 O9          2.9540   -2.4510    1.3880 o         1 MOL     -0.502343
     57 H25         1.7310    0.2110    0.6650 hn        1 MOL      0.240411
     58 H26         1.1010   -0.4550    2.6660 h1        1 MOL      0.141641
     59 H27         2.8140   -0.1290    3.3620 h1        1 MOL      0.141641
     60 N6          2.3530   -2.8390    3.4630 n         1 MOL     -0.373243
     61 C19         2.9510   -4.1620    3.5590 c3        1 MOL      0.007484
     62 C20         2.3710   -5.1410    2.5380 c         1 MOL      0.383386
     63 O10         3.1280   -5.7450    1.7020 o         1 MOL     -0.564855
     64 C21         2.7250   -4.7150    4.9880 c3        1 MOL     -0.174675
     65 C22         1.3520   -4.4200    5.6600 c         1 MOL      0.649980
     66 O11         0.3840   -4.9370    5.0610 o         1 MOL     -0.669034
     67 O12         1.2930   -3.7800    6.7380 o         1 MOL     -0.669034
     68 H28         1.9600   -2.4710    4.3200 hn        1 MOL      0.245645
     69 H29         4.0230   -4.0690    3.3970 h1        1 MOL      0.076385
     70 H30         3.4400   -4.3140    5.7040 hc        1 MOL      0.043879
     71 H31         2.8690   -5.7990    4.9340 hc        1 MOL      0.043879
     72 N7          1.0260   -5.1740    2.5160 n         1 MOL     -0.012992
     73 C23         0.3010   -6.0200    1.6000 c3        1 MOL     -0.194358
     74 C24         0.0170   -5.2470    0.3040 c         1 MOL      0.642966
     75 O13        -0.5510   -5.8920   -0.5570 o         1 MOL     -0.591156
     76 H32         0.5150   -4.6650    3.2290 hn        1 MOL      0.155499
     77 H33        -0.6680   -6.3000    2.0120 h1        1 MOL      0.105436
     78 H34         0.9190   -6.8860    1.3670 h1        1 MOL      0.105436
     79 N8          0.4470   -4.0090    0.0520 n         1 MOL     -0.317103
     80 C25         0.3980   -3.3340   -1.2650 c3        1 MOL      0.037344
     81 C26         0.0890   -1.8370   -1.1380 c         1 MOL      0.194686
     82 O14         0.2180   -1.2310   -0.0890 o         1 MOL     -0.349506
     83 C27         1.7580   -3.3720   -1.9950 c3        1 MOL      0.164957
     84 C28         2.5910   -4.6680   -1.7230 c3        1 MOL     -0.485650
     85 O15         1.5720   -3.3500   -3.4200 oh        1 MOL     -0.676854
     86 H35         1.0220   -3.4970    0.7160 hn        1 MOL      0.057774
     87 H36        -0.3850   -3.8410   -1.8300 h1        1 MOL      0.070908
     88 H37         2.3420   -2.4960   -1.6930 h1        1 MOL      0.165457
     89 H38         1.1380   -4.1670   -3.6960 ho        1 MOL      0.424092
     90 H39         3.0390   -4.5900   -0.7300 hc        1 MOL      0.145053
     91 H40         1.9780   -5.5750   -1.7140 hc        1 MOL      0.145053
     92 H41         3.4600   -4.7990   -2.3650 hc        1 MOL      0.145053
     93 N9         -0.4260   -1.1320   -2.1310 n         1 MOL      0.035543
     94 C29        -0.8940    0.2240   -1.9150 c3        1 MOL     -0.224284
     95 C30        -2.2150    0.1280   -1.0960 c         1 MOL      0.412045
     96 O16        -2.4660    1.1080   -0.3920 o         1 MOL     -0.496791
     97 C31        -1.1790    0.9540   -3.2290 c3        1 MOL      0.210527
     98 C32        -0.0870    0.6840   -4.3100 c3        1 MOL     -0.061062
     99 C33        -1.2590    2.4530   -3.0020 c3        1 MOL     -0.341521
    100 C34         1.3780    0.9020   -3.9890 c3        1 MOL     -0.139231
    101 H42        -0.6140   -1.6550   -2.9740 hn        1 MOL      0.184559
    102 H43        -0.2120    0.8820   -1.3710 h1        1 MOL      0.135062
    103 H44        -2.1550    0.6110   -3.5980 hc        1 MOL     -0.013482
    104 H45        -0.3320    1.2350   -5.2170 hc        1 MOL      0.008695
    105 H46        -0.1670   -0.3670   -4.6070 hc        1 MOL      0.008695
    106 H47        -1.2250    2.9020   -3.9850 hc        1 MOL      0.102673
    107 H48        -2.2910    2.6790   -2.7060 hc        1 MOL      0.102673
    108 H49        -0.5450    2.9180   -2.3180 hc        1 MOL      0.102673
    109 H50         1.7300    0.1920   -3.2440 hc        1 MOL      0.029627
    110 H51         2.0240    0.8750   -4.8650 hc        1 MOL      0.029627
    111 H52         1.4970    1.9250   -3.6400 hc        1 MOL      0.029627
    112 N10        -2.9720   -0.9760   -1.2120 n         1 MOL     -0.124520
    113 C35        -4.1610   -1.3420   -0.5040 c3        1 MOL     -0.217951
    114 C36        -5.2310   -1.8710   -1.4840 c         1 MOL      0.495345
    115 O17        -4.9710   -2.6690   -2.4250 o         1 MOL     -0.518369
    116 C37        -3.8680   -2.3380    0.6120 c3        1 MOL      0.461108
    117 C38        -3.4090   -3.7260    0.2560 c3        1 MOL     -0.377124
    118 O18        -2.8700   -1.8010    1.4780 oh        1 MOL     -0.616266
    119 H53        -2.7000   -1.6130   -1.9580 hn        1 MOL      0.130789
    120 H54        -4.5510   -0.4160   -0.0810 h1        1 MOL      0.091064
    121 H55        -4.7690   -2.4020    1.2280 h1        1 MOL      0.036795
    122 H56        -2.1080   -1.4880    0.9810 ho        1 MOL      0.367915
    123 H57        -3.6630   -4.3480    1.1170 hc        1 MOL      0.093059
    124 H58        -3.9330   -4.1780   -0.5830 hc        1 MOL      0.093059
    125 H59        -2.3600   -3.8540   -0.0110 hc        1 MOL      0.093059
    126 N11        -6.4760   -1.4560   -1.3220 n         1 MOL     -0.350884
    127 C39        -7.6350   -1.9030   -2.0970 c3        1 MOL     -0.020023
    128 C40        -8.6420   -0.8030   -2.2900 c         1 MOL      0.561957
    129 O19        -8.9510   -0.3800   -3.4100 o         1 MOL     -0.552529
    130 C41        -8.2700   -3.1630   -1.4220 c3        1 MOL      0.196082
    131 C42        -9.4530   -3.7010   -2.2050 c3        1 MOL     -0.446008
    132 O20        -8.8540   -2.7370   -0.1730 oh        1 MOL     -0.636497
    133 H60        -6.6280   -0.8040   -0.5700 hn        1 MOL      0.250873
    134 H61        -7.3280   -2.1450   -3.1140 h1        1 MOL      0.107123
    135 H62        -7.5230   -3.9150   -1.1960 h1        1 MOL      0.100419
    136 H63        -9.6410   -3.2810   -0.0830 ho        1 MOL      0.403312
    137 H64       -10.2140   -2.9810   -2.5040 hc        1 MOL      0.124585
    138 H65        -9.1120   -4.2690   -3.0800 hc        1 MOL      0.124585
    139 H66        -9.9840   -4.5110   -1.7170 hc        1 MOL      0.124585
    140 N12        -9.0790   -0.1310   -1.2160 n         1 MOL     -0.391248
    141 C43       -10.0050    1.0200   -1.1870 c3        1 MOL      0.020666
    142 C44        -9.7540    1.8500    0.0700 c         1 MOL      0.372777
    143 O21        -9.3720    1.2820    1.0650 o         1 MOL     -0.496648
    144 C45       -11.4490    0.5490   -1.3000 c3        1 MOL     -0.372916
    145 C46       -11.9140   -0.1980   -0.0580 c3        1 MOL      0.141177
    146 C47       -13.2650   -0.9680   -0.2170 c3        1 MOL     -0.260861
    147 C48       -13.6230   -1.6350    1.1330 c3        1 MOL      0.083985
    148 N13       -14.7890   -2.5730    0.9880 n4        1 MOL     -0.157392
    149 H67        -8.6630   -0.3760   -0.3250 hn        1 MOL      0.305617
    150 H68        -9.8000    1.6790   -2.0250 h1        1 MOL      0.124397
    151 H69       -11.5550   -0.1420   -2.1320 hc        1 MOL      0.137369
    152 H70       -12.1490    1.3630   -1.4730 hc        1 MOL      0.137369
    153 H71       -12.0800    0.5390    0.7250 hc        1 MOL      0.051691
    154 H72       -11.2080   -0.9530    0.2680 hc        1 MOL      0.051691
    155 H73       -13.1150   -1.7940   -0.9120 hc        1 MOL      0.085207
    156 H74       -14.0630   -0.2620   -0.4260 hc        1 MOL      0.085207
    157 H75       -14.0020   -0.7960    1.7230 hx        1 MOL      0.065876
    158 H76       -12.7630   -2.0420    1.6610 hx        1 MOL      0.065876
    159 H77       -15.6030   -2.0520    0.6930 hn        1 MOL      0.208625
    160 H78       -14.6970   -3.2910    0.2850 hn        1 MOL      0.208625
    161 H79       -14.9780   -3.0100    1.8690 hn        1 MOL      0.208625
    162 N14       -10.0150    3.1900    0.0610 n         1 MOL     -0.483738
    163 C49        -9.4370    4.0490    1.1220 c3        1 MOL      0.371647
    164 C50        -7.8680    3.8770    1.1180 c         1 MOL      0.387975
    165 O22        -7.3590    3.8580    2.2460 o         1 MOL     -0.551863
    166 C51        -9.8390    5.5260    0.8460 c3        1 MOL     -0.030281
    167 C52        -9.4580    6.3750    2.0290 c3        1 MOL     -0.120903
    168 C53        -9.8310    7.7910    1.8620 c         1 MOL      0.701586
    169 O23        -9.1910    8.6380    2.5510 o         1 MOL     -0.656464
    170 O24       -10.8020    8.1090    1.1540 o         1 MOL     -0.656464
    171 H80       -10.3110    3.6590   -0.7830 hn        1 MOL      0.267050
    172 H81        -9.7730    3.8550    2.1480 h1        1 MOL      0.009094
    173 H82       -10.9330    5.4670    0.8170 hc        1 MOL     -0.006821
    174 H83        -9.3980    5.8360   -0.0950 hc        1 MOL     -0.006821
    175 H84        -8.3920    6.3140    2.2570 hc        1 MOL      0.036594
    176 H85       -10.0000    6.0080    2.9070 hc        1 MOL      0.036594
    177 N15        -7.0160    3.8790    0.0890 n         1 MOL     -0.266139
    178 C54        -7.1380    4.3730   -1.2790 c3        1 MOL     -0.190710
    179 H86        -6.1480    4.4440   -1.7290 h1        1 MOL      0.091547
    180 H87        -7.7520    3.6860   -1.8610 h1        1 MOL      0.091547
    181 H88        -7.6040    5.3590   -1.2700 h1        1 MOL      0.091547
    182 H89        -6.0860    3.7310    0.4800 hn        1 MOL      0.269970
    183 Ca1         6.8540    4.1230   -0.1530 Ca        1 MOL      1.784893
    184 O25         4.9660    2.7140   -1.6740 oh        1 MOL     -0.903690
    185 H90         5.0840    2.2970   -2.5270 ho        1 MOL      0.444782
    186 H91         4.1450    2.3350   -1.3360 ho        1 MOL      0.444782
    187 O26         7.1330    6.0980    1.8420 oh        1 MOL     -0.903690
    188 H92         7.9710    6.1150    2.3020 ho        1 MOL      0.444782
    189 H93         6.5510    6.6480    2.3650 ho        1 MOL      0.444782
    190 O27         4.4720    5.3820   -0.1960 oh        1 MOL     -0.903690
    191 H94         3.9910    5.8210    0.5100 ho        1 MOL      0.444782
    192 H95         3.8590    4.7090   -0.5130 ho        1 MOL      0.444782
@<TRIPOS>BOND
     1    1    2 1   
     2    1    4 1   
     3    1    5 1   
     4    1    6 1   
     5    2    3 2   
     6    2    7 1   
     7    7    8 1   
     8    7   15 1   
     9    8    9 1   
    10    8   11 1   
    11    8   16 1   
    12    9   10 2   
    13    9   19 1   
    14   11   12 1   
    15   11   17 1   
    16   11   18 1   
    17   12   13 1   
    18   12   14 1   
    19   19   20 1   
    20   19   28 1   
    21   20   21 1   
    22   20   23 1   
    23   20   29 1   
    24   21   22 2   
    25   21   41 1   
    26   23   24 1   
    27   23   30 1   
    28   23   31 1   
    29   24   25 1   
    30   24   32 1   
    31   24   33 1   
    32   25   26 1   
    33   25   34 1   
    34   25   35 1   
    35   26   27 1   
    36   26   36 1   
    37   26   37 1   
    38   27   38 1   
    39   27   39 1   
    40   27   40 1   
    41   41   42 1   
    42   41   49 1   
    43   42   43 1   
    44   42   45 1   
    45   42   50 1   
    46   43   44 2   
    47   43   53 1   
    48   45   46 1   
    49   45   51 1   
    50   45   52 1   
    51   46   47 1   
    52   46   48 1   
    53   53   54 1   
    54   53   57 1   
    55   54   55 1   
    56   54   58 1   
    57   54   59 1   
    58   55   56 2   
    59   55   60 1   
    60   60   61 1   
    61   60   68 1   
    62   61   62 1   
    63   61   64 1   
    64   61   69 1   
    65   62   63 2   
    66   62   72 1   
    67   64   65 1   
    68   64   70 1   
    69   64   71 1   
    70   65   66 1   
    71   65   67 1   
    72   72   73 1   
    73   72   76 1   
    74   73   74 1   
    75   73   77 1   
    76   73   78 1   
    77   74   75 2   
    78   74   79 1   
    79   79   80 1   
    80   79   86 1   
    81   80   81 1   
    82   80   83 1   
    83   80   87 1   
    84   81   82 2   
    85   81   93 1   
    86   83   84 1   
    87   83   85 1   
    88   83   88 1   
    89   84   90 1   
    90   84   91 1   
    91   84   92 1   
    92   85   89 1   
    93   93   94 1   
    94   93  101 1   
    95   94   95 1   
    96   94   97 1   
    97   94  102 1   
    98   95   96 2   
    99   95  112 1   
   100   97   98 1   
   101   97   99 1   
   102   97  103 1   
   103   98  100 1   
   104   98  104 1   
   105   98  105 1   
   106   99  106 1   
   107   99  107 1   
   108   99  108 1   
   109  100  109 1   
   110  100  110 1   
   111  100  111 1   
   112  112  113 1   
   113  112  119 1   
   114  113  114 1   
   115  113  116 1   
   116  113  120 1   
   117  114  115 2   
   118  114  126 1   
   119  116  117 1   
   120  116  118 1   
   121  116  121 1   
   122  117  123 1   
   123  117  124 1   
   124  117  125 1   
   125  118  122 1   
   126  126  127 1   
   127  126  133 1   
   128  127  128 1   
   129  127  130 1   
   130  127  134 1   
   131  128  129 2   
   132  128  140 1   
   133  130  131 1   
   134  130  132 1   
   135  130  135 1   
   136  131  137 1   
   137  131  138 1   
   138  131  139 1   
   139  132  136 1   
   140  140  141 1   
   141  140  149 1   
   142  141  142 1   
   143  141  144 1   
   144  141  150 1   
   145  142  143 2   
   146  142  162 1   
   147  144  145 1   
   148  144  151 1   
   149  144  152 1   
   150  145  146 1   
   151  145  153 1   
   152  145  154 1   
   153  146  147 1   
   154  146  155 1   
   155  146  156 1   
   156  147  148 1   
   157  147  157 1   
   158  147  158 1   
   159  148  159 1   
   160  148  160 1   
   161  148  161 1   
   162  162  163 1   
   163  162  171 1   
   164  163  164 1   
   165  163  166 1   
   166  163  172 1   
   167  164  165 2   
   168  164  177 1   
   169  166  167 1   
   170  166  173 1   
   171  166  174 1   
   172  167  168 1   
   173  167  175 1   
   174  167  176 1   
   175  168  169 1   
   176  168  170 1   
   177  177  178 1   
   178  177  182 1   
   179  178  179 1   
   180  178  180 1   
   181  178  181 1   
   182  184  185 1   
   183  184  186 1   
   184  187  188 1   
   185  187  189 1   
   186  190  191 1   
   187  190  192 1   
@<TRIPOS>SUBSTRUCTURE
     1 MOL         1 TEMP              0 ****  ****    0 ROOT
