@<TRIPOS>MOLECULE
MOL
  192   187     1     0     0
SMALL
resp


@<TRIPOS>ATOM
      1 C1         -8.7680   -0.2580   -3.4100 c3        1 MOL     -0.292280
      2 C2         -8.0370   -0.4970   -2.0710 c         1 MOL      0.676340
      3 O1         -6.8520   -0.4330   -2.0370 o         1 MOL     -0.573478
      4 H1         -9.5490   -1.0080   -3.5360 hc        1 MOL      0.071536
      5 H2         -9.2160    0.7350   -3.4090 hc        1 MOL      0.071536
      6 H3         -8.0560   -0.3350   -4.2320 hc        1 MOL      0.071536
      7 N1         -8.7770   -0.4970   -0.9600 n         1 MOL     -0.449260
      8 C3         -8.3140   -0.4580    0.4720 c3        1 MOL      0.143876
      9 C4         -7.6070   -1.7380    0.9700 c         1 MOL      0.407945
     10 O2         -7.7550   -2.0980    2.1680 o         1 MOL     -0.446040
     11 C5         -9.4690    0.0550    1.3630 c3        1 MOL     -0.205656
     12 C6        -10.7180   -0.7500    1.1270 c         1 MOL      0.736888
     13 O3        -11.3830   -0.5130    0.0990 o         1 MOL     -0.697847
     14 O4        -11.0830   -1.5960    1.9830 o         1 MOL     -0.697847
     15 H4         -9.7660   -0.3420   -1.0620 hn        1 MOL      0.200441
     16 H5         -7.5610    0.3290    0.5450 h1        1 MOL      0.060611
     17 H6         -9.6410    1.0870    1.0600 hc        1 MOL      0.050002
     18 H7         -9.1900   -0.0670    2.4090 hc        1 MOL      0.050002
     19 N2         -6.8760   -2.3050    0.0100 n         1 MOL     -0.304769
     20 C7         -6.0890   -3.5420    0.2450 c3        1 MOL      0.348201
     21 C8         -4.9680   -3.3370    1.2570 c         1 MOL      0.244607
     22 O5         -4.8670   -4.1010    2.2000 o         1 MOL     -0.508949
     23 C9         -5.5980   -4.0990   -1.0880 c3        1 MOL      0.039880
     24 C10        -6.5140   -5.2180   -1.6390 c3        1 MOL     -0.017015
     25 C11        -7.9140   -4.7450   -2.0140 c3        1 MOL      0.161113
     26 C12        -8.8520   -6.0050   -2.0630 c3        1 MOL      0.009478
     27 N3        -10.2590   -5.6150   -2.4370 n4        1 MOL     -0.283937
     28 H8         -6.7850   -1.8250   -0.8770 hn        1 MOL      0.011820
     29 H9         -6.7640   -4.2790    0.6830 h1        1 MOL     -0.010654
     30 H10        -4.5760   -4.4660   -1.0450 hc        1 MOL      0.016479
     31 H11        -5.6140   -3.3110   -1.8370 hc        1 MOL      0.016479
     32 H12        -6.6130   -5.9460   -0.8360 hc        1 MOL     -0.008926
     33 H13        -6.0910   -5.6710   -2.5400 hc        1 MOL     -0.008926
     34 H14        -7.9130   -4.3330   -3.0180 hc        1 MOL     -0.043571
     35 H15        -8.4140   -4.0600   -1.3230 hc        1 MOL     -0.043571
     36 H16        -8.8960   -6.4390   -1.0710 hx        1 MOL      0.078496
     37 H17        -8.4300   -6.7930   -2.6940 hx        1 MOL      0.078496
     38 H18       -10.2740   -5.1880   -3.3540 hn        1 MOL      0.303479
     39 H19       -10.8240   -6.4340   -2.5860 hn        1 MOL      0.303479
     40 H20       -10.6330   -4.9060   -1.8170 hn        1 MOL      0.303479
     41 N4         -4.0570   -2.3660    1.1590 n         1 MOL     -0.175505
     42 C13        -3.9000   -1.3070    0.1280 c3        1 MOL     -0.208163
     43 C14        -3.8540    0.0470    0.8330 c         1 MOL      0.625913
     44 O6         -3.8850    0.1170    2.0770 o         1 MOL     -0.527704
     45 C15        -2.6780   -1.5810   -0.7200 c3        1 MOL     -0.123898
     46 C16        -1.4100   -1.6420    0.1560 c         1 MOL      0.715826
     47 O7         -0.7720   -0.5890    0.3840 o         1 MOL     -0.668960
     48 O8         -1.1160   -2.7880    0.6630 o         1 MOL     -0.668960
     49 H21        -3.4300   -2.4220    1.9500 hn        1 MOL      0.304938
     50 H22        -4.6010   -1.2860   -0.7060 h1        1 MOL      0.140288
     51 H23        -2.5770   -0.8750   -1.5430 hc        1 MOL      0.014949
     52 H24        -2.6750   -2.5640   -1.1860 hc        1 MOL      0.014949
     53 N5         -3.7700    1.1790    0.0740 n         1 MOL     -0.546977
     54 C17        -3.8740    2.5140    0.6600 c3        1 MOL      0.053760
     55 C18        -2.5710    3.1870    1.0050 c         1 MOL      0.191222
     56 O9         -1.4700    2.6480    0.8140 o         1 MOL     -0.161537
     57 H25        -3.7690    1.0930   -0.9300 hn        1 MOL      0.348157
     58 H26        -4.6050    2.4730    1.4710 h1        1 MOL      0.081927
     59 H27        -4.3510    3.1360   -0.0970 h1        1 MOL      0.081927
     60 N6         -2.6610    4.4110    1.5520 n         1 MOL     -0.334855
     61 C19        -1.5930    5.3540    1.8360 c3        1 MOL      0.316344
     62 C20        -2.0120    6.8150    1.6550 c         1 MOL      0.340697
     63 O10        -3.2070    7.1640    1.7440 o         1 MOL     -0.496538
     64 C21        -1.0790    5.1560    3.3590 c3        1 MOL     -0.339982
     65 C22        -0.8260    3.6590    3.6960 c         1 MOL      0.707365
     66 O11         0.1900    3.2150    3.1160 o         1 MOL     -0.679901
     67 O12        -1.6440    3.0850    4.4610 o         1 MOL     -0.679901
     68 H28        -3.6310    4.6110    1.7620 hn        1 MOL      0.256731
     69 H29        -0.7370    5.1950    1.1890 h1        1 MOL     -0.055235
     70 H30        -1.8780    5.4940    4.0090 hc        1 MOL      0.086350
     71 H31        -0.2380    5.8450    3.4620 hc        1 MOL      0.086350
     72 N7         -1.0210    7.7160    1.3580 n         1 MOL     -0.367243
     73 C23         0.3670    7.3690    1.1090 c3        1 MOL     -0.153063
     74 C24         0.6200    6.6130   -0.2280 c         1 MOL      0.622370
     75 O13        -0.1980    6.5520   -1.1510 o         1 MOL     -0.497415
     76 H32        -1.2440    8.6900    1.1740 hn        1 MOL      0.312680
     77 H33         0.8400    6.7770    1.8920 h1        1 MOL      0.092560
     78 H34         0.8250    8.3490    1.1390 h1        1 MOL      0.092560
     79 N8          1.8560    6.1820   -0.4010 n         1 MOL     -0.627786
     80 C25         2.2080    5.1970   -1.5290 c3        1 MOL      0.041562
     81 C26         1.4860    3.8460   -1.4640 c         1 MOL      0.883349
     82 O14         0.9340    3.3880   -0.4780 o         1 MOL     -0.668110
     83 C27         3.7520    5.0600   -1.5110 c3        1 MOL      0.356500
     84 C28         4.3910    4.3780   -2.7300 c3        1 MOL     -0.420058
     85 O15         4.1160    4.1820   -0.4820 oh        1 MOL     -0.690712
     86 H35         2.4720    6.2700    0.3920 hn        1 MOL      0.326122
     87 H36         2.0130    5.7790   -2.4310 h1        1 MOL      0.074798
     88 H37         4.1980    6.0330   -1.2940 h1        1 MOL      0.028293
     89 H38         5.0660    4.2930   -0.3810 ho        1 MOL      0.438588
     90 H39         5.4490    4.5990   -2.7240 hc        1 MOL      0.104956
     91 H40         4.2170    3.2940   -2.7290 hc        1 MOL      0.104956
     92 H41         3.9930    4.7560   -3.6710 hc        1 MOL      0.104956
     93 N9          1.3690    3.2050   -2.6890 n         1 MOL     -0.796919
     94 C29         0.6970    1.8900   -3.0200 c3        1 MOL      0.262616
     95 C30         1.2660    0.6510   -2.2680 c         1 MOL      0.439635
     96 O16         1.4600    0.6270   -1.0570 o         1 MOL     -0.549802
     97 C31        -0.8500    1.8900   -2.9290 c3        1 MOL      0.565119
     98 C32        -1.6360    3.0980   -3.3870 c3        1 MOL     -0.055511
     99 C33        -1.4610    0.6960   -3.5830 c3        1 MOL     -0.331690
    100 C34        -1.4410    3.5080   -4.8310 c3        1 MOL     -0.358183
    101 H42         1.9430    3.6400   -3.4050 hn        1 MOL      0.317774
    102 H43         0.9220    1.7430   -4.0770 h1        1 MOL     -0.028238
    103 H44        -1.0550    1.7390   -1.8670 hc        1 MOL     -0.303271
    104 H45        -1.2790    3.9120   -2.7620 hc        1 MOL      0.048090
    105 H46        -2.6860    2.8640   -3.2270 hc        1 MOL      0.048090
    106 H47        -2.4950    0.6740   -3.2520 hc        1 MOL      0.055439
    107 H48        -1.3630    0.7070   -4.6670 hc        1 MOL      0.055439
    108 H49        -1.0250   -0.2430   -3.2300 hc        1 MOL      0.055439
    109 H50        -1.1610    4.5650   -4.7890 hc        1 MOL      0.083317
    110 H51        -0.8030    2.8590   -5.4400 hc        1 MOL      0.083317
    111 H52        -2.4170    3.3950   -5.2950 hc        1 MOL      0.083317
    112 N10         1.5330   -0.4110   -3.0180 n         1 MOL     -0.325316
    113 C35         2.0600   -1.6800   -2.3150 c3        1 MOL      0.021428
    114 C36         3.5460   -1.5540   -2.0710 c         1 MOL      0.483044
    115 O17         4.0450   -2.3940   -1.3230 o         1 MOL     -0.560518
    116 C37         1.7650   -2.9120   -3.1720 c3        1 MOL      0.415791
    117 C38         2.7200   -3.0560   -4.3960 c3        1 MOL     -0.440962
    118 O18         0.4670   -2.8760   -3.8140 oh        1 MOL     -0.642559
    119 H53         1.1820   -0.3900   -3.9610 hn        1 MOL      0.188192
    120 H54         1.5280   -1.7800   -1.3660 h1        1 MOL      0.096717
    121 H55         1.8990   -3.8060   -2.5760 h1        1 MOL      0.062687
    122 H56         0.4590   -2.3830   -4.6380 ho        1 MOL      0.401603
    123 H57         3.7500   -3.2620   -4.0950 hc        1 MOL      0.104108
    124 H58         2.4530   -3.8720   -5.0680 hc        1 MOL      0.104108
    125 H59         2.6950   -2.1380   -4.9900 hc        1 MOL      0.104108
    126 N11         4.3090   -0.6760   -2.8070 n         1 MOL     -0.294415
    127 C39         5.8010   -0.8230   -2.7540 c3        1 MOL     -0.018934
    128 C40         6.3400   -0.8340   -1.2870 c         1 MOL      0.509110
    129 O19         6.3480    0.1450   -0.6350 o         1 MOL     -0.482894
    130 C41         6.5520    0.2870   -3.6320 c3        1 MOL      0.410065
    131 C42         8.0290   -0.0770   -4.0000 c3        1 MOL     -0.303484
    132 O20         5.9000    0.6040   -4.8670 oh        1 MOL     -0.626715
    133 H60         3.8900   -0.0190   -3.4450 hn        1 MOL      0.190182
    134 H61         6.0360   -1.7610   -3.2410 h1        1 MOL      0.031751
    135 H62         6.5280    1.1480   -2.9710 h1        1 MOL     -0.035103
    136 H63         6.3630    1.3520   -5.2550 ho        1 MOL      0.398574
    137 H64         8.5380   -0.3840   -3.0810 hc        1 MOL      0.071672
    138 H65         8.1760   -0.7880   -4.8130 hc        1 MOL      0.071672
    139 H66         8.5400    0.8140   -4.3610 hc        1 MOL      0.071672
    140 N12         6.8790   -2.0220   -0.9590 n         1 MOL     -0.325976
    141 C43         7.3600   -2.2920    0.4890 c3        1 MOL      0.085645
    142 C44         6.2760   -1.8700    1.5210 c         1 MOL      0.580583
    143 O21         6.6670   -1.2160    2.4800 o         1 MOL     -0.542767
    144 C45         8.8150   -1.8020    0.6970 c3        1 MOL     -0.248179
    145 C46         9.8250   -2.4040   -0.2180 c3        1 MOL      0.162604
    146 C47         9.8670   -3.8710   -0.1070 c3        1 MOL      0.069668
    147 C48        11.0580   -4.5660   -0.7140 c3        1 MOL     -0.092324
    148 N13        12.3690   -4.2320   -0.1090 n4        1 MOL     -0.107519
    149 H67         7.0680   -2.6970   -1.6860 hn        1 MOL      0.232825
    150 H68         7.4420   -3.3740    0.6120 h1        1 MOL     -0.009575
    151 H69         9.0950   -2.0970    1.7110 hc        1 MOL      0.093224
    152 H70         8.9650   -0.7300    0.5700 hc        1 MOL      0.093224
    153 H71        10.7800   -2.0160    0.1310 hc        1 MOL     -0.051833
    154 H72         9.6050   -2.0870   -1.2340 hc        1 MOL     -0.051833
    155 H73         8.9620   -4.2090   -0.6120 hc        1 MOL      0.030936
    156 H74         9.7840   -4.1500    0.9480 hc        1 MOL      0.030936
    157 H75        10.9640   -4.3520   -1.7800 hx        1 MOL      0.075362
    158 H76        10.9100   -5.6380   -0.5570 hx        1 MOL      0.075362
    159 H77        12.3670   -4.3590    0.8920 hn        1 MOL      0.186786
    160 H78        13.0610   -4.9270   -0.3430 hn        1 MOL      0.186786
    161 H79        12.7370   -3.3330   -0.3750 hn        1 MOL      0.186786
    162 N14         4.9700   -2.2140    1.4100 n         1 MOL     -0.445374
    163 C49         3.9370   -1.9650    2.3860 c3        1 MOL      0.116368
    164 C50         2.5050   -1.9570    1.7890 c         1 MOL      0.462238
    165 O22         1.9840   -0.9030    1.5370 o         1 MOL     -0.539011
    166 C51         4.0190   -2.9610    3.5420 c3        1 MOL      0.238448
    167 C52         4.7770   -2.4250    4.6800 c3        1 MOL     -0.258895
    168 C53         4.3940   -3.1650    6.0030 c         1 MOL      0.698073
    169 O23         3.2600   -3.1050    6.5290 o         1 MOL     -0.624096
    170 O24         5.2470   -3.9360    6.4310 o         1 MOL     -0.624096
    171 H80         4.7010   -2.6510    0.5390 hn        1 MOL      0.240530
    172 H81         3.9640   -0.9580    2.7830 h1        1 MOL      0.030668
    173 H82         4.4500   -3.8640    3.1010 hc        1 MOL     -0.041376
    174 H83         3.0350   -3.1880    3.9430 hc        1 MOL     -0.041376
    175 H84         4.7320   -1.3490    4.8560 hc        1 MOL      0.027907
    176 H85         5.7800   -2.7670    4.4360 hc        1 MOL      0.027907
    177 N15         1.8230   -3.0470    1.4460 n         1 MOL     -0.219938
    178 C54         2.1120   -4.4690    1.5680 c3        1 MOL     -0.101902
    179 H86         1.1780   -5.0290    1.5790 h1        1 MOL      0.054196
    180 H87         2.7190   -4.7910    0.7220 h1        1 MOL      0.054196
    181 H88         2.6550   -4.6520    2.4960 h1        1 MOL      0.054196
    182 H89         0.8630   -2.9160    1.1630 hn        1 MOL      0.224531
    183 Ca1         0.7210    1.3840    1.4230 Ca        1 MOL      1.655721
    184 O25         1.9070    0.6770    3.8110 oh        1 MOL     -0.879636
    185 H90         2.7750    1.0380    4.0130 ho        1 MOL      0.431133
    186 H91         1.6980    0.1390    4.5830 ho        1 MOL      0.431133
    187 O26        -1.3260    0.5340    3.1840 oh        1 MOL     -0.879636
    188 H92        -1.3320    1.0230    4.0080 ho        1 MOL      0.431133
    189 H93        -2.2320    0.5970    2.8630 ho        1 MOL      0.431133
    190 O27         3.0030    2.5570    1.5590 oh        1 MOL     -0.879636
    191 H94         3.2720    3.0920    0.8120 ho        1 MOL      0.431133
    192 H95         3.7910    2.4800    2.0910 ho        1 MOL      0.431133
@<TRIPOS>BOND
     1    1    2 1   
     2    1    4 1   
     3    1    5 1   
     4    1    6 1   
     5    2    3 2   
     6    2    7 1   
     7    7    8 1   
     8    7   15 1   
     9    8    9 1   
    10    8   11 1   
    11    8   16 1   
    12    9   10 2   
    13    9   19 1   
    14   11   12 1   
    15   11   17 1   
    16   11   18 1   
    17   12   13 1   
    18   12   14 1   
    19   19   20 1   
    20   19   28 1   
    21   20   21 1   
    22   20   23 1   
    23   20   29 1   
    24   21   22 2   
    25   21   41 1   
    26   23   24 1   
    27   23   30 1   
    28   23   31 1   
    29   24   25 1   
    30   24   32 1   
    31   24   33 1   
    32   25   26 1   
    33   25   34 1   
    34   25   35 1   
    35   26   27 1   
    36   26   36 1   
    37   26   37 1   
    38   27   38 1   
    39   27   39 1   
    40   27   40 1   
    41   41   42 1   
    42   41   49 1   
    43   42   43 1   
    44   42   45 1   
    45   42   50 1   
    46   43   44 2   
    47   43   53 1   
    48   45   46 1   
    49   45   51 1   
    50   45   52 1   
    51   46   47 1   
    52   46   48 1   
    53   53   54 1   
    54   53   57 1   
    55   54   55 1   
    56   54   58 1   
    57   54   59 1   
    58   55   56 2   
    59   55   60 1   
    60   60   61 1   
    61   60   68 1   
    62   61   62 1   
    63   61   64 1   
    64   61   69 1   
    65   62   63 2   
    66   62   72 1   
    67   64   65 1   
    68   64   70 1   
    69   64   71 1   
    70   65   66 1   
    71   65   67 1   
    72   72   73 1   
    73   72   76 1   
    74   73   74 1   
    75   73   77 1   
    76   73   78 1   
    77   74   75 2   
    78   74   79 1   
    79   79   80 1   
    80   79   86 1   
    81   80   81 1   
    82   80   83 1   
    83   80   87 1   
    84   81   82 2   
    85   81   93 1   
    86   83   84 1   
    87   83   85 1   
    88   83   88 1   
    89   84   90 1   
    90   84   91 1   
    91   84   92 1   
    92   85   89 1   
    93   93   94 1   
    94   93  101 1   
    95   94   95 1   
    96   94   97 1   
    97   94  102 1   
    98   95   96 2   
    99   95  112 1   
   100   97   98 1   
   101   97   99 1   
   102   97  103 1   
   103   98  100 1   
   104   98  104 1   
   105   98  105 1   
   106   99  106 1   
   107   99  107 1   
   108   99  108 1   
   109  100  109 1   
   110  100  110 1   
   111  100  111 1   
   112  112  113 1   
   113  112  119 1   
   114  113  114 1   
   115  113  116 1   
   116  113  120 1   
   117  114  115 2   
   118  114  126 1   
   119  116  117 1   
   120  116  118 1   
   121  116  121 1   
   122  117  123 1   
   123  117  124 1   
   124  117  125 1   
   125  118  122 1   
   126  126  127 1   
   127  126  133 1   
   128  127  128 1   
   129  127  130 1   
   130  127  134 1   
   131  128  129 2   
   132  128  140 1   
   133  130  131 1   
   134  130  132 1   
   135  130  135 1   
   136  131  137 1   
   137  131  138 1   
   138  131  139 1   
   139  132  136 1   
   140  140  141 1   
   141  140  149 1   
   142  141  142 1   
   143  141  144 1   
   144  141  150 1   
   145  142  143 2   
   146  142  162 1   
   147  144  145 1   
   148  144  151 1   
   149  144  152 1   
   150  145  146 1   
   151  145  153 1   
   152  145  154 1   
   153  146  147 1   
   154  146  155 1   
   155  146  156 1   
   156  147  148 1   
   157  147  157 1   
   158  147  158 1   
   159  148  159 1   
   160  148  160 1   
   161  148  161 1   
   162  162  163 1   
   163  162  171 1   
   164  163  164 1   
   165  163  166 1   
   166  163  172 1   
   167  164  165 2   
   168  164  177 1   
   169  166  167 1   
   170  166  173 1   
   171  166  174 1   
   172  167  168 1   
   173  167  175 1   
   174  167  176 1   
   175  168  169 1   
   176  168  170 1   
   177  177  178 1   
   178  177  182 1   
   179  178  179 1   
   180  178  180 1   
   181  178  181 1   
   182  184  185 1   
   183  184  186 1   
   184  187  188 1   
   185  187  189 1   
   186  190  191 1   
   187  190  192 1   
@<TRIPOS>SUBSTRUCTURE
     1 MOL         1 TEMP              0 ****  ****    0 ROOT
