@<TRIPOS>MOLECULE
MOL
  189   185     1     0     0
SMALL
resp


@<TRIPOS>ATOM
      1 C1          5.6400    4.4320   -3.3610 c3        1 MOL     -0.381240
      2 C2          6.0070    3.4940   -2.2690 c         1 MOL      0.958080
      3 O1          5.3130    3.3760   -1.2650 o         1 MOL     -0.795816
      4 H1          4.9060    5.1490   -2.9920 hc        1 MOL      0.096610
      5 H2          6.5300    4.9640   -3.6980 hc        1 MOL      0.096610
      6 H3          5.2140    3.8720   -4.1930 hc        1 MOL      0.096610
      7 N1          7.1470    2.7810   -2.3840 n         1 MOL     -0.748485
      8 C3          7.5520    1.6490   -1.5200 c3        1 MOL      0.296078
      9 C4          6.4810    0.5850   -1.3970 c         1 MOL      0.314839
     10 O2          5.9740    0.2840   -0.3070 o         1 MOL     -0.537264
     11 C5          8.2990    2.0200   -0.2260 c3        1 MOL      0.117059
     12 C6          7.8530    3.2550    0.5740 c         1 MOL      0.536990
     13 O3          6.7280    3.1570    1.2090 o         1 MOL     -0.671350
     14 O4          8.6910    4.2030    0.5540 o         1 MOL     -0.671350
     15 H4          7.7350    2.9200   -3.1910 hn        1 MOL      0.325097
     16 H5          8.3620    1.1010   -2.0130 h1        1 MOL      0.009899
     17 H6          9.3480    2.0970   -0.5060 hc        1 MOL     -0.042696
     18 H7          8.2310    1.1600    0.4440 hc        1 MOL     -0.042696
     19 N2          6.0230    0.0860   -2.5430 n         1 MOL     -0.443936
     20 C7          5.0800   -1.0180   -2.8590 c3        1 MOL      0.153926
     21 C8          5.4610   -2.3650   -2.2920 c         1 MOL      0.397631
     22 O5          5.6390   -3.2740   -3.0870 o         1 MOL     -0.560007
     23 C9          3.6070   -0.6240   -2.5110 c3        1 MOL      0.184143
     24 C10         2.5220   -1.6850   -2.9210 c3        1 MOL     -0.097090
     25 C11         3.2460    0.6100   -3.2830 c3        1 MOL     -0.368864
     26 C12         2.5500   -2.2990   -4.3730 c3        1 MOL     -0.165079
     27 H8          6.4030    0.5630   -3.3470 hn        1 MOL      0.246259
     28 H9          5.1200   -1.1270   -3.9500 h1        1 MOL      0.045209
     29 H10         3.4770   -0.4720   -1.4450 hc        1 MOL     -0.067846
     30 H11         1.5060   -1.3000   -2.8250 hc        1 MOL      0.094778
     31 H12         2.6470   -2.5840   -2.3120 hc        1 MOL      0.094778
     32 H13         3.3600    0.5400   -4.3710 hc        1 MOL      0.077349
     33 H14         2.2210    0.8470   -2.9870 hc        1 MOL      0.077349
     34 H15         3.8010    1.4740   -2.9380 hc        1 MOL      0.077349
     35 H16         2.1670   -1.5840   -5.1080 hc        1 MOL      0.030984
     36 H17         3.5550   -2.5110   -4.7180 hc        1 MOL      0.030984
     37 H18         2.0390   -3.2590   -4.3900 hc        1 MOL      0.030984
     38 N3          5.7960   -2.5030   -1.0190 n         1 MOL     -0.186893
     39 C13         6.2720   -3.8460   -0.5740 c3        1 MOL     -0.030671
     40 C14         5.2070   -4.9510   -0.5590 c         1 MOL      0.584905
     41 O6          5.4700   -6.1450   -0.9220 o         1 MOL     -0.557845
     42 C15         6.8430   -3.6530    0.8650 c3        1 MOL     -0.047983
     43 C16         7.4940   -4.8700    1.4690 c         1 MOL      0.610078
     44 O7          7.0950   -5.2660    2.6210 o         1 MOL     -0.681742
     45 O8          8.2950   -5.4770    0.7430 o         1 MOL     -0.681742
     46 H19         5.6610   -1.7280   -0.3890 hn        1 MOL      0.233239
     47 H20         7.0720   -4.2590   -1.1880 h1        1 MOL      0.060445
     48 H21         6.0870   -3.2620    1.5470 hc        1 MOL     -0.010320
     49 H22         7.6240   -2.8960    0.8780 hc        1 MOL     -0.010320
     50 N4          3.9530   -4.7440   -0.0960 n         1 MOL     -0.479067
     51 C17         3.3580   -3.5830    0.4970 c3        1 MOL      0.329317
     52 C18         1.9890   -3.9150    1.2120 c         1 MOL      0.516154
     53 O9          1.3550   -4.9460    0.9170 o         1 MOL     -0.549612
     54 H23         3.2980   -5.5110   -0.0600 hn        1 MOL      0.249873
     55 H24         3.1780   -2.9150   -0.3350 h1        1 MOL     -0.047635
     56 H25         4.0210   -3.1470    1.2470 h1        1 MOL     -0.047635
     57 N5          1.5060   -3.1050    2.1790 n         1 MOL     -0.454228
     58 C19         1.9560   -1.7990    2.5900 c3        1 MOL     -0.108463
     59 C20         2.1300   -0.6930    1.4960 c         1 MOL      0.812606
     60 O10         3.1410   -0.0940    1.3460 o         1 MOL     -0.756641
     61 C21         3.1720   -1.9100    3.5850 c3        1 MOL     -0.174489
     62 C22         2.9360   -3.0100    4.6330 c         1 MOL      0.709775
     63 O11         3.6660   -4.0210    4.7300 o         1 MOL     -0.691339
     64 O12         2.1570   -2.7220    5.5330 o         1 MOL     -0.691339
     65 H26         0.7610   -3.5830    2.6650 hn        1 MOL      0.322236
     66 H27         1.1460   -1.4070    3.2030 h1        1 MOL      0.072317
     67 H28         3.1820   -0.9700    4.1360 hc        1 MOL      0.045637
     68 H29         4.1570   -1.9620    3.1050 hc        1 MOL      0.045637
     69 N6          1.1150   -0.3690    0.7270 n         1 MOL     -0.379242
     70 C23        -0.2250   -0.8870    0.9460 c3        1 MOL     -0.011656
     71 C24        -0.5860   -2.0620    0.0420 c         1 MOL      0.302711
     72 O13         0.1540   -2.3410   -0.8860 o         1 MOL     -0.436590
     73 H30         1.2270    0.4490    0.1400 hn        1 MOL      0.222642
     74 H31        -0.9200   -0.0570    0.9430 h1        1 MOL      0.045806
     75 H32        -0.4500   -1.3500    1.9070 h1        1 MOL      0.045806
     76 N7         -1.6610   -2.8040    0.4480 n         1 MOL     -0.385052
     77 C25        -2.2270   -3.8870   -0.2830 c3        1 MOL      0.040526
     78 C26        -2.6890   -3.5840   -1.7480 c         1 MOL      0.447808
     79 O14        -2.9400   -4.5570   -2.4640 o         1 MOL     -0.514235
     80 C27        -3.3720   -4.5820    0.5680 c3        1 MOL     -0.241174
     81 C28        -4.7850   -4.0190    0.4890 c3        1 MOL     -0.091982
     82 C29        -5.8520   -4.6630    1.3840 c         1 MOL      0.649451
     83 N8         -7.1150   -4.6840    0.9150 n         1 MOL     -0.751932
     84 O15        -5.5820   -5.1660    2.4830 o         1 MOL     -0.575286
     85 H33        -2.0880   -2.4760    1.3070 hn        1 MOL      0.299665
     86 H34        -1.4690   -4.6600   -0.3850 h1        1 MOL      0.122870
     87 H35        -2.9970   -4.5800    1.5880 hc        1 MOL      0.095561
     88 H36        -3.5320   -5.5950    0.1950 hc        1 MOL      0.095561
     89 H37        -5.1550   -4.0340   -0.5350 hc        1 MOL      0.064011
     90 H38        -4.8150   -2.9500    0.7170 hc        1 MOL      0.064011
     91 H39        -7.2450   -4.2940   -0.0100 hn        1 MOL      0.343081
     92 H40        -7.8500   -5.1380    1.4370 hn        1 MOL      0.343081
     93 N9         -2.8310   -2.2980   -2.0700 n         1 MOL     -0.252529
     94 C30        -3.3990   -1.9040   -3.3720 c3        1 MOL     -0.016350
     95 C31        -4.8600   -1.3410   -3.3500 c         1 MOL      0.584044
     96 O16        -5.5020   -1.2820   -4.4410 o         1 MOL     -0.556705
     97 C32        -2.4850   -0.9750   -3.9800 c3        1 MOL      0.192137
     98 C33        -1.2760   -1.6740   -4.6480 c3        1 MOL     -0.203498
     99 C34        -1.8880    0.1600   -3.0810 c3        1 MOL     -0.203498
    100 H41        -2.6130   -1.5450   -1.4410 hn        1 MOL      0.214232
    101 H42        -3.5330   -2.7400   -4.0520 h1        1 MOL      0.060221
    102 H43        -3.0630   -0.6930   -4.8630 hc        1 MOL     -0.025118
    103 H44        -0.4790   -2.1240   -4.0490 hc        1 MOL      0.047897
    104 H45        -1.6100   -2.3760   -5.4060 hc        1 MOL      0.047897
    105 H46        -0.7800   -0.9340   -5.2670 hc        1 MOL      0.047897
    106 H47        -2.5920    0.6650   -2.4240 hc        1 MOL      0.047897
    107 H48        -1.1390   -0.2940   -2.4400 hc        1 MOL      0.047897
    108 H49        -1.4650    0.9580   -3.7030 hc        1 MOL      0.047897
    109 N10        -5.2600   -0.7700   -2.2250 n         1 MOL     -0.463614
    110 C35        -6.6280   -0.1880   -2.0690 c3        1 MOL      0.061166
    111 C36        -6.5850    1.1950   -1.3050 c         1 MOL      0.564776
    112 O17        -7.3060    2.1410   -1.5760 o         1 MOL     -0.559368
    113 C37        -7.5500   -1.1270   -1.3540 c3        1 MOL     -0.331586
    114 C38        -7.7940   -2.4460   -2.1830 c         1 MOL      0.678075
    115 N11        -8.0420   -2.3350   -3.4350 n         1 MOL     -0.790580
    116 O18        -7.6940   -3.5200   -1.5930 o         1 MOL     -0.586026
    117 H50        -4.6070   -0.7580   -1.4590 hn        1 MOL      0.219903
    118 H51        -7.0620    0.0430   -3.0410 h1        1 MOL      0.066276
    119 H52        -8.5290   -0.6610   -1.2560 hc        1 MOL      0.106500
    120 H53        -7.2610   -1.4050   -0.3380 hc        1 MOL      0.106500
    121 H54        -8.2840   -1.4030   -3.7300 hn        1 MOL      0.396154
    122 H55        -8.0570   -3.1890   -3.9810 hn        1 MOL      0.396154
    123 N12        -5.6640    1.3940   -0.3410 n         1 MOL     -0.423367
    124 C39        -5.6630    2.4260    0.7690 c3        1 MOL      0.013609
    125 C40        -4.2850    3.0590    1.0090 c         1 MOL      0.462073
    126 O19        -3.2240    2.4330    0.8240 o         1 MOL     -0.473374
    127 C41        -6.0880    1.7470    2.0890 c3        1 MOL     -0.044845
    128 C42        -7.3270    0.8340    2.0590 ca        1 MOL      0.182240
    129 C43        -8.4730    1.2850    1.3410 ca        1 MOL     -0.359758
    130 C44        -7.2250   -0.4490    2.6440 ca        1 MOL     -0.359758
    131 C45        -9.4590    0.3080    1.0960 ca        1 MOL     -0.095589
    132 C46        -8.2460   -1.3810    2.4330 ca        1 MOL     -0.095589
    133 C47        -9.3900   -0.9980    1.7060 ca        1 MOL      0.156037
    134 O20       -10.3030   -1.9360    1.4630 oh        1 MOL     -0.419798
    135 H56        -5.0230    0.6220   -0.2230 hn        1 MOL      0.267620
    136 H57        -6.4020    3.1960    0.5590 h1        1 MOL      0.051101
    137 H58        -6.3120    2.5510    2.8010 hc        1 MOL      0.033929
    138 H59        -5.2210    1.2720    2.5470 hc        1 MOL      0.033929
    139 H60        -8.4220    2.2670    0.9040 ha        1 MOL      0.200979
    140 H61        -6.4070   -0.7330    3.2800 ha        1 MOL      0.200979
    141 H62       -10.2840    0.5510    0.4500 ha        1 MOL      0.106026
    142 H63        -8.2720   -2.4110    2.7630 ha        1 MOL      0.106026
    143 H64       -11.1080   -1.4150    1.4370 ho        1 MOL      0.318315
    144 N13        -4.3300    4.2370    1.5540 n         1 MOL     -0.307032
    145 C48        -3.2150    5.0150    2.1110 c3        1 MOL     -0.105945
    146 C49        -1.9920    5.2770    1.1350 c         1 MOL      0.454663
    147 O21        -0.9860    5.8080    1.5400 o         1 MOL     -0.454558
    148 C50        -2.7420    4.5690    3.5360 c3        1 MOL      0.001959
    149 C51        -2.0700    3.1750    3.6780 c3        1 MOL     -0.199492
    150 C52        -1.7470    2.8820    5.1250 c         1 MOL      0.657511
    151 O22        -2.5540    2.2150    5.8360 o         1 MOL     -0.719135
    152 O23        -0.7190    3.3710    5.6060 o         1 MOL     -0.719135
    153 H65        -5.2400    4.6740    1.5190 hn        1 MOL      0.258699
    154 H66        -3.7330    5.9730    2.2000 h1        1 MOL      0.065596
    155 H67        -3.6050    4.6100    4.1990 hc        1 MOL      0.039435
    156 H68        -2.0260    5.3660    3.7660 hc        1 MOL      0.039435
    157 H69        -1.1370    3.1980    3.1300 hc        1 MOL      0.074153
    158 H70        -2.7830    2.4430    3.2870 hc        1 MOL      0.074153
    159 N14        -2.0100    4.8870   -0.1110 n         1 MOL     -0.484022
    160 C53        -0.9400    4.8450   -1.0400 c3        1 MOL      0.116220
    161 C54        -1.1340    5.8660   -2.1750 c         1 MOL      0.442126
    162 O24        -0.1370    6.1370   -2.8410 o         1 MOL     -0.529051
    163 C55        -0.5490    3.4380   -1.5830 c3        1 MOL     -0.090629
    164 C56        -0.0020    2.4820   -0.5340 c3        1 MOL      0.380662
    165 C57         1.3890    2.7830   -0.0280 c         1 MOL      0.389772
    166 O25         1.6910    3.7260    0.7660 o         1 MOL     -0.521763
    167 O26         2.2620    1.9310   -0.3410 o         1 MOL     -0.521763
    168 H71        -2.8360    4.3730   -0.3620 hn        1 MOL      0.224582
    169 H72        -0.0800    5.1930   -0.4620 h1        1 MOL      0.087581
    170 H73         0.2740    3.5200   -2.3010 hc        1 MOL      0.002514
    171 H74        -1.4500    3.1460   -2.1220 hc        1 MOL      0.002514
    172 H75        -0.0250    1.4760   -0.9380 hc        1 MOL     -0.107117
    173 H76        -0.6530    2.5190    0.3380 hc        1 MOL     -0.107117
    174 N15        -2.3760    6.1990   -2.6330 n         1 MOL     -0.252603
    175 C58        -2.6700    7.0290   -3.7670 c3        1 MOL     -0.115131
    176 H77        -3.3790    7.8040   -3.4760 h1        1 MOL      0.066875
    177 H78        -1.7520    7.4940   -4.1250 h1        1 MOL      0.066875
    178 H79        -3.1040    6.4210   -4.5610 h1        1 MOL      0.066875
    179 H80        -3.1120    5.9940   -1.9620 hn        1 MOL      0.204277
    180 Ca1         4.3780    2.1000    1.0640 Ca        1 MOL      1.806309
    181 O27         3.2660    2.6750    3.4030 oh        1 MOL     -0.860886
    182 H81         3.7440    2.9990    4.1690 ho        1 MOL      0.418894
    183 H82         2.4940    2.2510    3.7720 ho        1 MOL      0.418894
    184 O28         4.6080    4.9350    0.8970 oh        1 MOL     -0.860886
    185 H83         4.5000    5.8410    1.1880 ho        1 MOL      0.418894
    186 H84         5.3740    4.9760    0.3150 ho        1 MOL      0.418894
    187 O29         5.9140    0.8320    2.8800 oh        1 MOL     -0.860886
    188 H85         5.8250   -0.0740    3.1720 ho        1 MOL      0.418894
    189 H86         6.8560    1.0110    2.9140 ho        1 MOL      0.418894
@<TRIPOS>BOND
     1    1    2 1   
     2    1    4 1   
     3    1    5 1   
     4    1    6 1   
     5    2    3 2   
     6    2    7 1   
     7    7    8 1   
     8    7   15 1   
     9    8    9 1   
    10    8   11 1   
    11    8   16 1   
    12    9   10 2   
    13    9   19 1   
    14   11   12 1   
    15   11   17 1   
    16   11   18 1   
    17   12   13 1   
    18   12   14 1   
    19   19   20 1   
    20   19   27 1   
    21   20   21 1   
    22   20   23 1   
    23   20   28 1   
    24   21   22 2   
    25   21   38 1   
    26   23   24 1   
    27   23   25 1   
    28   23   29 1   
    29   24   26 1   
    30   24   30 1   
    31   24   31 1   
    32   25   32 1   
    33   25   33 1   
    34   25   34 1   
    35   26   35 1   
    36   26   36 1   
    37   26   37 1   
    38   38   39 1   
    39   38   46 1   
    40   39   40 1   
    41   39   42 1   
    42   39   47 1   
    43   40   41 2   
    44   40   50 1   
    45   42   43 1   
    46   42   48 1   
    47   42   49 1   
    48   43   44 1   
    49   43   45 1   
    50   50   51 1   
    51   50   54 1   
    52   51   52 1   
    53   51   55 1   
    54   51   56 1   
    55   52   53 2   
    56   52   57 1   
    57   57   58 1   
    58   57   65 1   
    59   58   59 1   
    60   58   61 1   
    61   58   66 1   
    62   59   60 2   
    63   59   69 1   
    64   61   62 1   
    65   61   67 1   
    66   61   68 1   
    67   62   63 1   
    68   62   64 1   
    69   69   70 1   
    70   69   73 1   
    71   70   71 1   
    72   70   74 1   
    73   70   75 1   
    74   71   72 2   
    75   71   76 1   
    76   76   77 1   
    77   76   85 1   
    78   77   78 1   
    79   77   80 1   
    80   77   86 1   
    81   78   79 2   
    82   78   93 1   
    83   80   81 1   
    84   80   87 1   
    85   80   88 1   
    86   81   82 1   
    87   81   89 1   
    88   81   90 1   
    89   82   83 1   
    90   82   84 2   
    91   83   91 1   
    92   83   92 1   
    93   93   94 1   
    94   93  100 1   
    95   94   95 1   
    96   94   97 1   
    97   94  101 1   
    98   95   96 2   
    99   95  109 1   
   100   97   98 1   
   101   97   99 1   
   102   97  102 1   
   103   98  103 1   
   104   98  104 1   
   105   98  105 1   
   106   99  106 1   
   107   99  107 1   
   108   99  108 1   
   109  109  110 1   
   110  109  117 1   
   111  110  111 1   
   112  110  113 1   
   113  110  118 1   
   114  111  112 2   
   115  111  123 1   
   116  113  114 1   
   117  113  119 1   
   118  113  120 1   
   119  114  115 1   
   120  114  116 2   
   121  115  121 1   
   122  115  122 1   
   123  123  124 1   
   124  123  135 1   
   125  124  125 1   
   126  124  127 1   
   127  124  136 1   
   128  125  126 2   
   129  125  144 1   
   130  127  128 1   
   131  127  137 1   
   132  127  138 1   
   133  128  129 ar  
   134  128  130 ar  
   135  129  131 ar  
   136  129  139 1   
   137  130  132 ar  
   138  130  140 1   
   139  131  133 ar  
   140  131  141 1   
   141  132  133 ar  
   142  132  142 1   
   143  133  134 1   
   144  134  143 1   
   145  144  145 1   
   146  144  153 1   
   147  145  146 1   
   148  145  148 1   
   149  145  154 1   
   150  146  147 2   
   151  146  159 1   
   152  148  149 1   
   153  148  155 1   
   154  148  156 1   
   155  149  150 1   
   156  149  157 1   
   157  149  158 1   
   158  150  151 1   
   159  150  152 1   
   160  159  160 1   
   161  159  168 1   
   162  160  161 1   
   163  160  163 1   
   164  160  169 1   
   165  161  162 2   
   166  161  174 1   
   167  163  164 1   
   168  163  170 1   
   169  163  171 1   
   170  164  165 1   
   171  164  172 1   
   172  164  173 1   
   173  165  166 1   
   174  165  167 1   
   175  174  175 1   
   176  174  179 1   
   177  175  176 1   
   178  175  177 1   
   179  175  178 1   
   180  181  182 1   
   181  181  183 1   
   182  184  185 1   
   183  184  186 1   
   184  187  188 1   
   185  187  189 1   
@<TRIPOS>SUBSTRUCTURE
     1 MOL         1 TEMP              0 ****  ****    0 ROOT
