@<TRIPOS>MOLECULE
MOL
  181   177     1     0     0
SMALL
resp


@<TRIPOS>ATOM
      1 C1          6.8670   -5.8420    4.7140 c3        1 MOL     -0.337128
      2 C2          6.3530   -4.6650    3.8260 c         1 MOL      0.609078
      3 O1          5.4190   -3.9610    4.1450 o         1 MOL     -0.545472
      4 H1          7.8820   -5.6270    5.0480 hc        1 MOL      0.084604
      5 H2          6.2160   -5.9550    5.5810 hc        1 MOL      0.084604
      6 H3          6.8640   -6.7650    4.1340 hc        1 MOL      0.084604
      7 N1          7.0230   -4.2500    2.7610 n         1 MOL     -0.313553
      8 C3          8.2700   -4.8100    2.0760 c3        1 MOL     -0.155743
      9 C4          7.9480   -5.1540    0.5710 c         1 MOL      0.477344
     10 O2          6.9110   -5.7330    0.3140 o         1 MOL     -0.456490
     11 C5          9.3230   -3.6710    2.1900 c3        1 MOL     -0.054832
     12 C6          8.8690   -2.3060    1.6480 c         1 MOL      0.670383
     13 O3          9.0420   -2.0480    0.4330 o         1 MOL     -0.745209
     14 O4          8.3050   -1.4540    2.3560 o         1 MOL     -0.745209
     15 H4          6.4330   -3.6740    2.1780 hn        1 MOL      0.248528
     16 H5          8.6290   -5.6370    2.6960 h1        1 MOL      0.109079
     17 H6         10.2640   -3.9290    1.6990 hc        1 MOL      0.008426
     18 H7          9.6370   -3.5410    3.2220 hc        1 MOL      0.008426
     19 N2          8.8410   -4.7860   -0.3820 n         1 MOL     -0.360953
     20 C7          8.7090   -5.0860   -1.7950 c3        1 MOL      0.258086
     21 C8          7.4120   -4.5650   -2.3630 c         1 MOL      0.303743
     22 O5          6.7210   -5.2090   -3.1460 o         1 MOL     -0.518307
     23 C9          8.9940   -6.5670   -2.1200 c3        1 MOL     -0.537502
     24 H8          9.6960   -4.3400   -0.0880 hn        1 MOL      0.260425
     25 H9          9.4640   -4.4630   -2.2830 h1        1 MOL      0.021762
     26 H10         8.1460   -7.2320   -1.9520 hc        1 MOL      0.142102
     27 H11         9.0970   -6.6340   -3.2060 hc        1 MOL      0.142102
     28 H12         9.7940   -6.9860   -1.5160 hc        1 MOL      0.142102
     29 N3          6.9780   -3.3320   -2.0080 n         1 MOL      0.061846
     30 C10         5.9370   -2.5150   -2.6470 c3        1 MOL      0.060407
     31 C11         6.5570   -1.0940   -2.7820 c         1 MOL      0.193458
     32 O6          7.5500   -0.7660   -2.1110 o         1 MOL     -0.505299
     33 C12         4.6610   -2.4820   -1.6920 c3        1 MOL     -0.199848
     34 C13         4.9880   -2.3590   -0.1870 c         1 MOL      0.694592
     35 O7          6.1460   -1.9790    0.2030 o         1 MOL     -0.604132
     36 O8          4.1220   -2.4080    0.6570 o         1 MOL     -0.604132
     37 H13         7.4130   -2.8990   -1.2020 hn        1 MOL     -0.080413
     38 H14         5.7560   -2.8650   -3.6540 h1        1 MOL      0.035678
     39 H15         4.0670   -3.3930   -1.7950 hc        1 MOL      0.053781
     40 H16         3.9560   -1.6980   -1.9660 hc        1 MOL      0.053781
     41 N4          6.0580   -0.2400   -3.6600 n         1 MOL     -0.011984
     42 C14         6.4970    1.1380   -3.8560 c3        1 MOL     -0.540994
     43 C15         6.1550    2.1190   -2.6620 c         1 MOL      0.801798
     44 O9          6.1110    1.6650   -1.4950 o         1 MOL     -0.608755
     45 H17         5.3310   -0.6020   -4.2600 hn        1 MOL      0.233942
     46 H18         6.0590    1.5720   -4.7630 h1        1 MOL      0.182620
     47 H19         7.5760    1.0630   -3.8890 h1        1 MOL      0.182620
     48 N5          5.9600    3.4250   -2.9700 n         1 MOL     -0.598095
     49 C16         5.6830    4.4910   -2.0120 c3        1 MOL      0.006883
     50 C17         4.3850    4.1490   -1.2140 c         1 MOL      0.618664
     51 O10         3.3860    3.7550   -1.8390 o         1 MOL     -0.497031
     52 C18         5.4580    5.8600   -2.7500 c3        1 MOL     -0.184913
     53 C19         6.6710    6.5050   -3.3880 c         1 MOL      0.706381
     54 N6          6.5470    7.6910   -3.9640 n         1 MOL     -0.824198
     55 O11         7.7490    6.0220   -3.3720 o         1 MOL     -0.567063
     56 H20         5.9610    3.6370   -3.9640 hn        1 MOL      0.338455
     57 H21         6.5200    4.6100   -1.3260 h1        1 MOL      0.054811
     58 H22         5.1620    6.6700   -2.0700 hc        1 MOL      0.082802
     59 H23         4.6790    5.8100   -3.5110 hc        1 MOL      0.082802
     60 H24         5.6260    8.0600   -4.1060 hn        1 MOL      0.366280
     61 H25         7.3800    8.0180   -4.4230 hn        1 MOL      0.366280
     62 N7          4.4280    4.2760    0.1120 n         1 MOL     -0.484013
     63 C20         3.2520    4.2780    1.0220 c3        1 MOL      0.044275
     64 C21         2.3140    5.4890    0.8220 c         1 MOL      0.507892
     65 O12         2.6710    6.4540    0.1090 o         1 MOL     -0.558865
     66 H26         5.3100    4.5870    0.5000 hn        1 MOL      0.265724
     67 H27         3.6300    4.3230    2.0540 h1        1 MOL      0.076191
     68 H28         2.7660    3.3140    0.8670 h1        1 MOL      0.076191
     69 N8          1.1120    5.3930    1.4090 n         1 MOL     -0.340183
     70 C22         0.5650    4.3650    2.2730 c3        1 MOL     -0.108775
     71 C23        -0.6870    3.6430    1.5910 c         1 MOL      0.584637
     72 O13        -1.0500    4.0420    0.4690 o         1 MOL     -0.540080
     73 C24         0.2290    4.9700    3.6540 c3        1 MOL      0.393045
     74 C25         1.3070    5.7760    4.3430 c3        1 MOL     -0.213175
     75 O14        -0.7800    5.8840    3.4490 oh        1 MOL     -0.605311
     76 H29         0.4290    6.0750    1.1450 hn        1 MOL      0.292600
     77 H30         1.2960    3.5610    2.3490 h1        1 MOL      0.023130
     78 H31        -0.1220    4.2040    4.3490 h1        1 MOL      0.009374
     79 H32        -1.6570    5.5100    3.3590 ho        1 MOL      0.392302
     80 H33         0.8930    6.0770    5.3080 hc        1 MOL      0.043027
     81 H34         2.1230    5.0750    4.5120 hc        1 MOL      0.043027
     82 H35         1.6200    6.5650    3.6450 hc        1 MOL      0.043027
     83 N9         -1.2800    2.5200    2.1420 n         1 MOL     -0.464781
     84 C26        -2.4870    1.9230    1.5500 c3        1 MOL     -0.075710
     85 C27        -3.5020    1.2990    2.5740 c         1 MOL      0.578006
     86 O15        -3.1150    0.7550    3.5600 o         1 MOL     -0.586060
     87 C28        -2.2090    0.8190    0.4950 c3        1 MOL      0.307105
     88 C29        -1.4880   -0.4570    1.0170 c3        1 MOL     -0.015299
     89 C30        -1.3820    1.4180   -0.6420 c3        1 MOL     -0.163591
     90 C31        -1.0830   -1.4950   -0.0900 c3        1 MOL     -0.089286
     91 H36        -0.9420    2.2340    3.0420 hn        1 MOL      0.255321
     92 H37        -3.0750    2.7120    1.0970 h1        1 MOL      0.124191
     93 H38        -3.1690    0.4180    0.1540 hc        1 MOL     -0.138075
     94 H39        -2.1060   -1.0330    1.6960 hc        1 MOL      0.007679
     95 H40        -0.6170   -0.1960    1.6210 hc        1 MOL      0.007679
     96 H41        -1.8130    2.3050   -1.0990 hc        1 MOL      0.040823
     97 H42        -0.3660    1.5050   -0.2690 hc        1 MOL      0.040823
     98 H43        -1.4060    0.7940   -1.5390 hc        1 MOL      0.040823
     99 H44        -1.8280   -1.5110   -0.8840 hc        1 MOL      0.015426
    100 H45        -0.1850   -1.1130   -0.5620 hc        1 MOL      0.015426
    101 H46        -0.9490   -2.4840    0.3280 hc        1 MOL      0.015426
    102 N10        -4.8140    1.3470    2.3410 n         1 MOL     -0.556568
    103 C32        -5.5570    1.8590    1.1460 c3        1 MOL      0.297705
    104 C33        -6.8710    1.1090    0.9980 c         1 MOL      0.450241
    105 O16        -7.4200    0.5130    1.9520 o         1 MOL     -0.520155
    106 C34        -5.7200    3.3800    1.2400 c3        1 MOL     -0.236027
    107 C35        -6.4270    3.7090    2.5960 c         1 MOL      0.595382
    108 O17        -5.8730    3.4560    3.7110 o         1 MOL     -0.643777
    109 O18        -7.6580    4.0500    2.6590 o         1 MOL     -0.643777
    110 H47        -5.3580    1.0070    3.1200 hn        1 MOL      0.351389
    111 H48        -5.0070    1.7920    0.2140 h1        1 MOL      0.006027
    112 H49        -6.4480    3.6170    0.4640 hc        1 MOL      0.020127
    113 H50        -4.7320    3.8440    1.1850 hc        1 MOL      0.020127
    114 N11        -7.4120    1.0700   -0.2200 n         1 MOL     -0.351411
    115 C36        -8.6460    0.4750   -0.5920 c3        1 MOL      0.479900
    116 C37        -8.7860   -0.0770   -2.0210 c         1 MOL      0.076124
    117 O19        -8.4400    0.6610   -2.9140 o         1 MOL     -0.470434
    118 C38        -9.6700    1.6450   -0.4390 c3        1 MOL     -0.287565
    119 C39       -11.1360    1.1390   -0.5850 ca        1 MOL      0.234089
    120 C40       -11.8060    1.4120   -1.7950 ca        1 MOL     -0.273048
    121 C41       -11.7290    0.3420    0.3370 ca        1 MOL     -0.273048
    122 C42       -13.1510    1.0460   -1.9600 ca        1 MOL     -0.056069
    123 C43       -13.0580   -0.1020    0.1090 ca        1 MOL     -0.056069
    124 C44       -13.8470    0.3740   -0.9730 ca        1 MOL     -0.164095
    125 H51        -6.9550    1.6250   -0.9320 hn        1 MOL      0.267755
    126 H52        -8.8490   -0.2870    0.1570 h1        1 MOL     -0.078738
    127 H53        -9.4570    2.4280   -1.1690 hc        1 MOL      0.070385
    128 H54        -9.4600    2.0990    0.5190 hc        1 MOL      0.070385
    129 H55       -11.2710    1.8920   -2.5980 ha        1 MOL      0.160079
    130 H56       -11.1930    0.1530    1.2540 ha        1 MOL      0.160079
    131 H57       -13.7120    1.3200   -2.8460 ha        1 MOL      0.076243
    132 H58       -13.5550   -0.6140    0.9160 ha        1 MOL      0.076243
    133 H59       -14.8680    0.0670   -1.1040 ha        1 MOL      0.103052
    134 N12        -9.4640   -1.2140   -2.2360 n         1 MOL      0.307535
    135 C45       -10.1270   -2.1460   -1.3040 c3        1 MOL      0.013948
    136 C46        -9.1840   -2.9270   -0.3600 c         1 MOL      0.358214
    137 O20        -9.6570   -3.4120    0.6570 o         1 MOL     -0.580492
    138 C47       -11.0070   -3.0580   -2.1080 c3        1 MOL      0.035848
    139 C48       -11.3270   -2.2480   -3.3180 c3        1 MOL      0.032067
    140 C49       -10.0510   -1.3660   -3.5150 c3        1 MOL     -0.199192
    141 H60       -10.8260   -1.6390   -0.6380 h1        1 MOL      0.061212
    142 H61       -10.4530   -3.9570   -2.3400 hc        1 MOL      0.001277
    143 H62       -11.9450   -3.2930   -1.6010 hc        1 MOL      0.001277
    144 H63       -11.5000   -2.8590   -4.2000 hc        1 MOL     -0.017362
    145 H64       -12.2720   -1.7520   -3.0900 hc        1 MOL     -0.017362
    146 H65        -9.4190   -1.8530   -4.2450 h1        1 MOL      0.063498
    147 H66       -10.4200   -0.4040   -3.8760 h1        1 MOL      0.063498
    148 N13        -7.9110   -3.0920   -0.6690 n         1 MOL     -0.026612
    149 C50        -6.9630   -3.8280    0.2300 c3        1 MOL      0.108017
    150 C51        -7.3460   -5.3090    0.3380 c         1 MOL      0.434238
    151 O21        -7.2060   -6.0600   -0.6030 o         1 MOL     -0.562154
    152 C52        -5.4430   -3.6910   -0.2010 c3        1 MOL     -0.405722
    153 C53        -5.1510   -2.1730   -0.2140 c3        1 MOL      0.204205
    154 C54        -5.4430   -1.4560   -1.5350 c         1 MOL      0.578589
    155 O22        -6.0260   -2.0710   -2.4690 o         1 MOL     -0.636655
    156 O23        -5.1270   -0.2500   -1.7390 o         1 MOL     -0.636655
    157 H67        -7.6450   -2.6160   -1.5200 hn        1 MOL     -0.006764
    158 H68        -6.9700   -3.4330    1.2380 h1        1 MOL      0.106323
    159 H69        -5.2740   -4.1840   -1.1650 hc        1 MOL      0.121162
    160 H70        -4.8590   -4.1050    0.6080 hc        1 MOL      0.121162
    161 H71        -4.1540   -1.9450    0.1450 hc        1 MOL     -0.066073
    162 H72        -5.8220   -1.7800    0.5540 hc        1 MOL     -0.066073
    163 N14        -7.8450   -5.8340    1.4570 n         1 MOL     -0.389500
    164 C55        -8.3810   -5.1340    2.7230 c3        1 MOL     -0.045390
    165 H73        -9.4010   -5.4650    2.9170 h1        1 MOL      0.051763
    166 H74        -7.7490   -5.3880    3.5750 h1        1 MOL      0.051763
    167 H75        -8.3720   -4.0540    2.5730 h1        1 MOL      0.051763
    168 H76        -8.0450   -6.8210    1.3930 hn        1 MOL      0.263775
    169 Ca1         7.7020    0.0890    0.3260 Ca        1 MOL      1.784966
    170 O24        10.3490    0.5330    1.5560 oh        1 MOL     -0.834667
    171 H77        10.6260    0.0170    2.3150 ho        1 MOL      0.397254
    172 H78        11.1540    0.9680    1.2570 ho        1 MOL      0.397254
    173 O25         9.4330    1.3250   -1.2370 oh        1 MOL     -0.834667
    174 H79         9.6890    0.9850   -2.1020 ho        1 MOL      0.397254
    175 H80        10.2400    1.6980   -0.8870 ho        1 MOL      0.397254
    176 O26         5.6650    0.8190    2.1080 oh        1 MOL     -0.834667
    177 H81         5.1200    0.1660    2.5450 ho        1 MOL      0.397254
    178 H82         5.9340    1.4070    2.8140 ho        1 MOL      0.397254
    179 O27         7.9710    2.5980    1.5660 oh        1 MOL     -0.834667
    180 H83         7.3490    3.3150    1.6220 ho        1 MOL      0.397254
    181 H84         8.8260    2.9940    1.7540 ho        1 MOL      0.397254
@<TRIPOS>BOND
     1    1    2 1   
     2    1    4 1   
     3    1    5 1   
     4    1    6 1   
     5    2    3 2   
     6    2    7 1   
     7    7    8 1   
     8    7   15 1   
     9    8    9 1   
    10    8   11 1   
    11    8   16 1   
    12    9   10 2   
    13    9   19 1   
    14   11   12 1   
    15   11   17 1   
    16   11   18 1   
    17   12   13 1   
    18   12   14 1   
    19   19   20 1   
    20   19   24 1   
    21   20   21 1   
    22   20   23 1   
    23   20   25 1   
    24   21   22 2   
    25   21   29 1   
    26   23   26 1   
    27   23   27 1   
    28   23   28 1   
    29   29   30 1   
    30   29   37 1   
    31   30   31 1   
    32   30   33 1   
    33   30   38 1   
    34   31   32 2   
    35   31   41 1   
    36   33   34 1   
    37   33   39 1   
    38   33   40 1   
    39   34   35 1   
    40   34   36 1   
    41   41   42 1   
    42   41   45 1   
    43   42   43 1   
    44   42   46 1   
    45   42   47 1   
    46   43   44 2   
    47   43   48 1   
    48   48   49 1   
    49   48   56 1   
    50   49   50 1   
    51   49   52 1   
    52   49   57 1   
    53   50   51 2   
    54   50   62 1   
    55   52   53 1   
    56   52   58 1   
    57   52   59 1   
    58   53   54 1   
    59   53   55 2   
    60   54   60 1   
    61   54   61 1   
    62   62   63 1   
    63   62   66 1   
    64   63   64 1   
    65   63   67 1   
    66   63   68 1   
    67   64   65 2   
    68   64   69 1   
    69   69   70 1   
    70   69   76 1   
    71   70   71 1   
    72   70   73 1   
    73   70   77 1   
    74   71   72 2   
    75   71   83 1   
    76   73   74 1   
    77   73   75 1   
    78   73   78 1   
    79   74   80 1   
    80   74   81 1   
    81   74   82 1   
    82   75   79 1   
    83   83   84 1   
    84   83   91 1   
    85   84   85 1   
    86   84   87 1   
    87   84   92 1   
    88   85   86 2   
    89   85  102 1   
    90   87   88 1   
    91   87   89 1   
    92   87   93 1   
    93   88   90 1   
    94   88   94 1   
    95   88   95 1   
    96   89   96 1   
    97   89   97 1   
    98   89   98 1   
    99   90   99 1   
   100   90  100 1   
   101   90  101 1   
   102  102  103 1   
   103  102  110 1   
   104  103  104 1   
   105  103  106 1   
   106  103  111 1   
   107  104  105 2   
   108  104  114 1   
   109  106  107 1   
   110  106  112 1   
   111  106  113 1   
   112  107  108 1   
   113  107  109 1   
   114  114  115 1   
   115  114  125 1   
   116  115  116 1   
   117  115  118 1   
   118  115  126 1   
   119  116  117 2   
   120  116  134 1   
   121  118  119 1   
   122  118  127 1   
   123  118  128 1   
   124  119  120 ar  
   125  119  121 ar  
   126  120  122 ar  
   127  120  129 1   
   128  121  123 ar  
   129  121  130 1   
   130  122  124 ar  
   131  122  131 1   
   132  123  124 ar  
   133  123  132 1   
   134  124  133 1   
   135  134  135 1   
   136  134  140 1   
   137  135  136 1   
   138  135  138 1   
   139  135  141 1   
   140  136  137 2   
   141  136  148 1   
   142  138  139 1   
   143  138  142 1   
   144  138  143 1   
   145  139  140 1   
   146  139  144 1   
   147  139  145 1   
   148  140  146 1   
   149  140  147 1   
   150  148  149 1   
   151  148  157 1   
   152  149  150 1   
   153  149  152 1   
   154  149  158 1   
   155  150  151 2   
   156  150  163 1   
   157  152  153 1   
   158  152  159 1   
   159  152  160 1   
   160  153  154 1   
   161  153  161 1   
   162  153  162 1   
   163  154  155 1   
   164  154  156 1   
   165  163  164 1   
   166  163  168 1   
   167  164  165 1   
   168  164  166 1   
   169  164  167 1   
   170  170  171 1   
   171  170  172 1   
   172  173  174 1   
   173  173  175 1   
   174  176  177 1   
   175  176  178 1   
   176  179  180 1   
   177  179  181 1   
@<TRIPOS>SUBSTRUCTURE
     1 MOL         1 TEMP              0 ****  ****    0 ROOT
