@<TRIPOS>MOLECULE
MOL
  182   178     1     0     0
SMALL
resp


@<TRIPOS>ATOM
      1 C1          2.5670   -6.1670    5.3020 c3        1 MOL     -0.378216
      2 C2          2.4230   -5.3490    3.9220 c         1 MOL      0.664074
      3 O1          1.4880   -5.6620    3.1260 o         1 MOL     -0.631250
      4 H1          3.6150   -6.4190    5.4660 hc        1 MOL      0.110351
      5 H2          2.2080   -5.5530    6.1280 hc        1 MOL      0.110351
      6 H3          1.9780   -7.0820    5.2460 hc        1 MOL      0.110351
      7 N1          3.2880   -4.4290    3.5550 n         1 MOL     -0.564122
      8 C3          3.2130   -3.8020    2.2390 c3        1 MOL      0.214466
      9 C4          3.8220   -4.6330    1.0770 c         1 MOL      0.393587
     10 O2          4.9870   -4.8670    1.0350 o         1 MOL     -0.519702
     11 C5          3.9140   -2.4380    2.3550 c3        1 MOL     -0.067245
     12 C6          3.6400   -1.5040    1.2120 c         1 MOL      0.602871
     13 O3          4.0740   -0.3330    1.3680 o         1 MOL     -0.705640
     14 O4          3.1260   -1.8030    0.1040 o         1 MOL     -0.705640
     15 H4          4.0740   -4.3440    4.1840 hn        1 MOL      0.307704
     16 H5          2.1580   -3.6290    2.0230 h1        1 MOL      0.009384
     17 H6          5.0060   -2.5480    2.3670 hc        1 MOL      0.050053
     18 H7          3.5550   -1.9140    3.2440 hc        1 MOL      0.050053
     19 N2          3.0510   -4.9720    0.0560 n         1 MOL     -0.080846
     20 C7          3.3360   -5.6140   -1.1980 c3        1 MOL     -0.194417
     21 C8          4.2210   -4.8440   -2.1900 c         1 MOL      0.455779
     22 O5          4.4850   -5.2720   -3.3160 o         1 MOL     -0.525843
     23 C9          2.0400   -6.0690   -1.8560 c3        1 MOL      0.075845
     24 C10         1.2240   -7.0070   -1.0000 c3        1 MOL     -0.069071
     25 C11         1.6230   -8.4320   -1.2530 c3        1 MOL     -0.130979
     26 C12         0.6080   -9.3820   -0.5700 c3        1 MOL      0.170379
     27 N3          1.0390  -10.7980   -0.5710 n4        1 MOL     -0.313508
     28 H8          2.0910   -4.7070    0.1870 hn        1 MOL      0.168510
     29 H9          3.8470   -6.5350   -0.8960 h1        1 MOL      0.101569
     30 H10         2.2740   -6.4470   -2.8510 hc        1 MOL      0.034542
     31 H11         1.4300   -5.1790   -2.0260 hc        1 MOL      0.034542
     32 H12         0.2150   -6.8090   -1.3580 hc        1 MOL      0.041338
     33 H13         1.3560   -6.7050    0.0390 hc        1 MOL      0.041338
     34 H14         2.5750   -8.6280   -0.7640 hc        1 MOL      0.063249
     35 H15         1.6630   -8.7590   -2.2920 hc        1 MOL      0.063249
     36 H16        -0.3690   -9.3970   -1.0460 hx        1 MOL      0.030189
     37 H17         0.5210   -9.0660    0.4630 hx        1 MOL      0.030189
     38 H18         0.8030  -11.1180   -1.4950 hn        1 MOL      0.255614
     39 H19         1.9970  -10.8780   -0.2770 hn        1 MOL      0.255614
     40 H20         0.4860  -11.3070    0.1120 hn        1 MOL      0.255614
     41 N4          4.6050   -3.5760   -1.8740 n         1 MOL     -0.186240
     42 C13         5.5750   -2.8660   -2.7140 c3        1 MOL      0.117475
     43 C14         6.6830   -2.1040   -1.8750 c         1 MOL      0.225283
     44 O6          7.8290   -1.9350   -2.3800 o         1 MOL     -0.483914
     45 C15         4.8870   -1.8240   -3.6080 c3        1 MOL     -0.438627
     46 C16         3.9180   -0.9820   -2.7830 c         1 MOL      0.810403
     47 O7          4.3430   -0.2240   -1.9130 o         1 MOL     -0.746555
     48 O8          2.7200   -0.9410   -3.0530 o         1 MOL     -0.746555
     49 H21         4.1180   -3.1480   -1.1100 hn        1 MOL      0.144695
     50 H22         6.0920   -3.6600   -3.2700 h1        1 MOL      0.108413
     51 H23         4.3780   -2.4630   -4.3330 hc        1 MOL      0.122106
     52 H24         5.6500   -1.1500   -4.0100 hc        1 MOL      0.122106
     53 N5          6.4440   -1.8370   -0.5720 n         1 MOL      0.046024
     54 C17         7.3920   -1.0580    0.2640 c3        1 MOL     -0.287103
     55 C18         7.5860    0.4070   -0.0570 c         1 MOL      0.587604
     56 O9          8.5210    1.0380    0.4240 o         1 MOL     -0.575638
     57 H25         5.5280   -2.1020   -0.2370 hn        1 MOL      0.005476
     58 H26         8.4380   -1.3600    0.3190 h1        1 MOL      0.127793
     59 H27         6.9290   -1.0090    1.2460 h1        1 MOL      0.127793
     60 N6          6.7340    0.9440   -0.9190 n         1 MOL     -0.229199
     61 C19         6.6790    2.3070   -1.2750 c3        1 MOL     -0.018175
     62 C20         5.4110    3.0750   -0.9390 c         1 MOL      0.665027
     63 O10         4.3500    2.4790   -0.8030 o         1 MOL     -0.593422
     64 C21         7.0640    2.2860   -2.8050 c3        1 MOL     -0.257225
     65 C22         7.1160    3.7230   -3.2810 c         1 MOL      0.639122
     66 N7          6.1300    4.3070   -3.8990 n         1 MOL     -0.776482
     67 O11         8.0350    4.4780   -2.9140 o         1 MOL     -0.578250
     68 H28         6.0370    0.3090   -1.2970 hn        1 MOL      0.270407
     69 H29         7.4150    2.9050   -0.7420 h1        1 MOL      0.051668
     70 H30         6.3510    1.7140   -3.4110 hc        1 MOL      0.107472
     71 H31         8.0200    1.7860   -3.0030 hc        1 MOL      0.107472
     72 H32         5.2070    3.9030   -3.9530 hn        1 MOL      0.352779
     73 H33         6.2580    5.3140   -3.9320 hn        1 MOL      0.352779
     74 N8          5.4730    4.3810   -0.7300 n         1 MOL     -0.444362
     75 C23         4.3580    5.2990   -0.5790 c3        1 MOL     -0.099275
     76 C24         3.4140    5.1340    0.5920 c         1 MOL      0.595984
     77 O12         3.8890    4.9990    1.7350 o         1 MOL     -0.522052
     78 H34         6.3840    4.7590   -0.5100 hn        1 MOL      0.326690
     79 H35         3.7800    5.4300   -1.4860 h1        1 MOL      0.075122
     80 H36         4.7750    6.2980   -0.4470 h1        1 MOL      0.075122
     81 N9          2.0990    5.0450    0.3690 n         1 MOL     -0.521099
     82 C25         1.1750    4.6460    1.4890 c3        1 MOL      0.145041
     83 C26         0.9990    3.1260    1.7090 c         1 MOL      0.803626
     84 O13         1.6770    2.4210    0.9940 o         1 MOL     -0.640122
     85 C27        -0.2070    5.3590    1.0690 c3        1 MOL     -0.182960
     86 C28         0.0060    6.8350    0.7220 ca        1 MOL      0.029151
     87 C29         0.3170    7.6700    1.8570 ca        1 MOL     -0.113423
     88 C30        -0.0530    7.3520   -0.5430 ca        1 MOL     -0.113423
     89 C31         0.3170    9.0640    1.6330 ca        1 MOL     -0.279463
     90 C32         0.0170    8.7510   -0.7570 ca        1 MOL     -0.279463
     91 C33         0.1890    9.5930    0.2940 ca        1 MOL      0.357898
     92 O14         0.3280   10.9830    0.1160 oh        1 MOL     -0.507041
     93 H37         1.7280    5.2390   -0.5510 hn        1 MOL      0.281159
     94 H38         1.4860    5.0560    2.4410 h1        1 MOL      0.059734
     95 H39        -0.9820    5.3580    1.8440 hc        1 MOL      0.061779
     96 H40        -0.6710    4.8140    0.2400 hc        1 MOL      0.061779
     97 H41         0.4760    7.1480    2.7890 ha        1 MOL      0.121554
     98 H42        -0.1300    6.7080   -1.4090 ha        1 MOL      0.121554
     99 H43         0.3800    9.7750    2.4430 ha        1 MOL      0.162543
    100 H44        -0.0670    9.1990   -1.7360 ha        1 MOL      0.162543
    101 H45         0.2880   11.4270    0.9670 ho        1 MOL      0.373984
    102 N10         0.1390    2.6730    2.6120 n         1 MOL     -0.812574
    103 C34        -0.0680    1.2700    3.1230 c3        1 MOL      0.444662
    104 C35        -0.2320    0.1900    2.0520 c         1 MOL      0.163158
    105 O15         0.7320   -0.3120    1.4800 o         1 MOL     -0.490402
    106 C36         1.0170    0.9060    4.1450 c3        1 MOL      0.268908
    107 C37         0.7600   -0.4080    4.8660 c3        1 MOL     -0.204659
    108 C38         1.3470    2.0700    5.0870 c3        1 MOL     -0.413648
    109 C39        -0.4760   -0.2180    5.7720 c3        1 MOL     -0.035035
    110 H46        -0.3700    3.3440    3.1680 hn        1 MOL      0.327660
    111 H47        -0.9540    1.2620    3.7610 h1        1 MOL     -0.032173
    112 H48         1.9470    0.7700    3.5830 hc        1 MOL      0.022832
    113 H49         1.6010   -0.7340    5.4810 hc        1 MOL      0.069581
    114 H50         0.4760   -1.1430    4.1020 hc        1 MOL      0.069581
    115 H51         1.9500    2.7960    4.5420 hc        1 MOL      0.102581
    116 H52         0.5030    2.5630    5.5720 hc        1 MOL      0.102581
    117 H53         1.9930    1.6660    5.8730 hc        1 MOL      0.102581
    118 H54        -1.4560   -0.1980    5.2880 hc        1 MOL      0.007894
    119 H55        -0.6060   -0.9960    6.5280 hc        1 MOL      0.007894
    120 H56        -0.4460    0.7200    6.3430 hc        1 MOL      0.007894
    121 N11        -1.5460   -0.1610    1.8430 n         1 MOL     -0.260150
    122 C40        -2.0600   -1.3190    1.0550 c3        1 MOL     -0.066873
    123 C41        -3.5030   -1.0920    0.4300 c         1 MOL      0.428919
    124 O16        -3.9410   -2.1000   -0.0960 o         1 MOL     -0.489492
    125 C42        -1.9870   -2.6380    1.8580 c3        1 MOL      0.134677
    126 O17        -0.6940   -2.8560    2.4150 oh        1 MOL     -0.498222
    127 H57        -2.1960    0.2770    2.4700 hn        1 MOL      0.254940
    128 H58        -1.3700   -1.5500    0.2430 h1        1 MOL      0.149672
    129 H59        -2.2650   -3.4700    1.1980 h1        1 MOL      0.031235
    130 H60        -2.7250   -2.6120    2.6540 h1        1 MOL      0.031235
    131 H61        -0.6770   -3.7360    2.8100 ho        1 MOL      0.375202
    132 N12        -4.1550    0.0960    0.5790 n         1 MOL     -0.398560
    133 C43        -5.5160    0.3100    0.1590 c3        1 MOL      0.126617
    134 C44        -5.6730    0.8490   -1.2380 c         1 MOL      0.595697
    135 O18        -4.7690    1.5640   -1.6340 o         1 MOL     -0.610435
    136 C45        -6.2990    0.9490    1.2770 c3        1 MOL     -0.053630
    137 H62        -3.5880    0.8700    0.9090 hn        1 MOL      0.243781
    138 H63        -5.9730   -0.6740    0.0710 h1        1 MOL      0.085502
    139 H64        -5.7520    0.7940    2.2030 hc        1 MOL      0.021134
    140 H65        -6.3400    2.0420    1.2880 hc        1 MOL      0.021134
    141 H66        -7.3280    0.5990    1.3390 hc        1 MOL      0.021134
    142 N13        -6.7630    0.6210   -1.9210 n         1 MOL     -0.636178
    143 C46        -8.0040   -0.0140   -1.5730 c3        1 MOL      0.402702
    144 C47        -9.2030    0.7720   -2.2210 c         1 MOL      0.451073
    145 O19        -9.0270    1.5640   -3.0940 o         1 MOL     -0.515416
    146 C48        -7.9910   -1.4780   -2.1010 c3        1 MOL     -0.262858
    147 H67        -6.6920    1.2110   -2.7400 hn        1 MOL      0.335943
    148 H68        -8.2120    0.0360   -0.5000 h1        1 MOL     -0.065357
    149 H69        -7.7160   -1.4660   -3.1600 hc        1 MOL      0.076146
    150 H70        -7.2980   -2.1130   -1.5430 hc        1 MOL      0.076146
    151 H71        -8.9770   -1.9610   -2.1370 hc        1 MOL      0.076146
    152 N14       -10.4580    0.3680   -1.8550 n         1 MOL     -0.445908
    153 C49       -10.8080   -0.2890   -0.6070 c3        1 MOL      0.048014
    154 C50       -10.4950    0.6560    0.5630 c         1 MOL      0.370958
    155 O20        -9.9970    0.1660    1.6010 o         1 MOL     -0.510235
    156 C51       -12.2780   -0.7630   -0.5630 c3        1 MOL     -0.197678
    157 C52       -12.4890   -2.0720   -1.3280 c3        1 MOL     -0.120369
    158 C53       -14.0340   -2.2470   -1.4770 c         1 MOL      0.706509
    159 O21       -14.5250   -1.8270   -2.5000 o         1 MOL     -0.641115
    160 O22       -14.7230   -2.8940   -0.6970 o         1 MOL     -0.641115
    161 H72       -11.1690    0.8980   -2.3360 hn        1 MOL      0.329172
    162 H73       -10.2040   -1.1860   -0.4400 h1        1 MOL      0.103035
    163 H74       -12.9210   -0.0730   -1.1180 hc        1 MOL      0.080917
    164 H75       -12.5660   -0.9620    0.4670 hc        1 MOL      0.080917
    165 H76       -12.0380   -2.9580   -0.8650 hc        1 MOL      0.015156
    166 H77       -12.0950   -1.8470   -2.3120 hc        1 MOL      0.015156
    167 N15       -10.4790    1.9350    0.3410 n         1 MOL     -0.204174
    168 C54        -9.9150    2.9750    1.1930 c3        1 MOL     -0.223703
    169 H78       -10.3820    2.9320    2.1770 h1        1 MOL      0.111439
    170 H79        -8.8410    2.8190    1.2950 h1        1 MOL      0.111439
    171 H80       -10.1000    3.9520    0.7460 h1        1 MOL      0.111439
    172 H81       -10.8990    2.1860   -0.5480 hn        1 MOL      0.215907
    173 Ca1         2.2030    0.5500   -0.6500 Ca        1 MOL      1.819645
    174 O23         2.0630    2.4400   -2.6950 oh        1 MOL     -0.822159
    175 H82         1.2070    2.7470   -3.0010 ho        1 MOL      0.406412
    176 H83         2.6530    2.6140   -3.4270 ho        1 MOL      0.406412
    177 O24         0.1170   -0.6300   -1.8610 oh        1 MOL     -0.822159
    178 H84        -0.0110   -1.5680   -1.7040 ho        1 MOL      0.406412
    179 H85        -0.6840   -0.3390   -2.2970 ho        1 MOL      0.406412
    180 O25        -0.7370    1.6180   -0.5700 oh        1 MOL     -0.822159
    181 H86        -1.1240    1.0760   -1.2490 ho        1 MOL      0.406412
    182 H87        -1.1640    2.4680   -0.6690 ho        1 MOL      0.406412
@<TRIPOS>BOND
     1    1    2 1   
     2    1    4 1   
     3    1    5 1   
     4    1    6 1   
     5    2    3 2   
     6    2    7 1   
     7    7    8 1   
     8    7   15 1   
     9    8    9 1   
    10    8   11 1   
    11    8   16 1   
    12    9   10 2   
    13    9   19 1   
    14   11   12 1   
    15   11   17 1   
    16   11   18 1   
    17   12   13 1   
    18   12   14 1   
    19   19   20 1   
    20   19   28 1   
    21   20   21 1   
    22   20   23 1   
    23   20   29 1   
    24   21   22 2   
    25   21   41 1   
    26   23   24 1   
    27   23   30 1   
    28   23   31 1   
    29   24   25 1   
    30   24   32 1   
    31   24   33 1   
    32   25   26 1   
    33   25   34 1   
    34   25   35 1   
    35   26   27 1   
    36   26   36 1   
    37   26   37 1   
    38   27   38 1   
    39   27   39 1   
    40   27   40 1   
    41   41   42 1   
    42   41   49 1   
    43   42   43 1   
    44   42   45 1   
    45   42   50 1   
    46   43   44 2   
    47   43   53 1   
    48   45   46 1   
    49   45   51 1   
    50   45   52 1   
    51   46   47 1   
    52   46   48 1   
    53   53   54 1   
    54   53   57 1   
    55   54   55 1   
    56   54   58 1   
    57   54   59 1   
    58   55   56 2   
    59   55   60 1   
    60   60   61 1   
    61   60   68 1   
    62   61   62 1   
    63   61   64 1   
    64   61   69 1   
    65   62   63 2   
    66   62   74 1   
    67   64   65 1   
    68   64   70 1   
    69   64   71 1   
    70   65   66 1   
    71   65   67 2   
    72   66   72 1   
    73   66   73 1   
    74   74   75 1   
    75   74   78 1   
    76   75   76 1   
    77   75   79 1   
    78   75   80 1   
    79   76   77 2   
    80   76   81 1   
    81   81   82 1   
    82   81   93 1   
    83   82   83 1   
    84   82   85 1   
    85   82   94 1   
    86   83   84 2   
    87   83  102 1   
    88   85   86 1   
    89   85   95 1   
    90   85   96 1   
    91   86   87 ar  
    92   86   88 ar  
    93   87   89 ar  
    94   87   97 1   
    95   88   90 ar  
    96   88   98 1   
    97   89   91 ar  
    98   89   99 1   
    99   90   91 ar  
   100   90  100 1   
   101   91   92 1   
   102   92  101 1   
   103  102  103 1   
   104  102  110 1   
   105  103  104 1   
   106  103  106 1   
   107  103  111 1   
   108  104  105 2   
   109  104  121 1   
   110  106  107 1   
   111  106  108 1   
   112  106  112 1   
   113  107  109 1   
   114  107  113 1   
   115  107  114 1   
   116  108  115 1   
   117  108  116 1   
   118  108  117 1   
   119  109  118 1   
   120  109  119 1   
   121  109  120 1   
   122  121  122 1   
   123  121  127 1   
   124  122  123 1   
   125  122  125 1   
   126  122  128 1   
   127  123  124 2   
   128  123  132 1   
   129  125  126 1   
   130  125  129 1   
   131  125  130 1   
   132  126  131 1   
   133  132  133 1   
   134  132  137 1   
   135  133  134 1   
   136  133  136 1   
   137  133  138 1   
   138  134  135 2   
   139  134  142 1   
   140  136  139 1   
   141  136  140 1   
   142  136  141 1   
   143  142  143 1   
   144  142  147 1   
   145  143  144 1   
   146  143  146 1   
   147  143  148 1   
   148  144  145 2   
   149  144  152 1   
   150  146  149 1   
   151  146  150 1   
   152  146  151 1   
   153  152  153 1   
   154  152  161 1   
   155  153  154 1   
   156  153  156 1   
   157  153  162 1   
   158  154  155 2   
   159  154  167 1   
   160  156  157 1   
   161  156  163 1   
   162  156  164 1   
   163  157  158 1   
   164  157  165 1   
   165  157  166 1   
   166  158  159 1   
   167  158  160 1   
   168  167  168 1   
   169  167  172 1   
   170  168  169 1   
   171  168  170 1   
   172  168  171 1   
   173  174  175 1   
   174  174  176 1   
   175  177  178 1   
   176  177  179 1   
   177  180  181 1   
   178  180  182 1   
@<TRIPOS>SUBSTRUCTURE
     1 MOL         1 TEMP              0 ****  ****    0 ROOT
