@<TRIPOS>MOLECULE
MOL
  181   177     1     0     0
SMALL
resp


@<TRIPOS>ATOM
      1 C1          3.2680   -6.1860    4.6510 c3        1 MOL     -0.210693
      2 C2          3.1640   -4.8890    3.8750 c         1 MOL      0.629826
      3 O1          2.2910   -4.0750    4.1150 o         1 MOL     -0.567157
      4 H1          3.4390   -5.9650    5.7050 hc        1 MOL      0.039570
      5 H2          2.3410   -6.7490    4.5430 hc        1 MOL      0.039570
      6 H3          4.0990   -6.7750    4.2640 hc        1 MOL      0.039570
      7 N1          3.9690   -4.5480    2.8990 n         1 MOL     -0.432078
      8 C3          5.0060   -5.3880    2.2400 c3        1 MOL      0.156575
      9 C4          4.6150   -5.7410    0.8220 c         1 MOL      0.412881
     10 O2          3.4600   -5.6390    0.4250 o         1 MOL     -0.436884
     11 C5          6.3370   -4.7060    2.3240 c3        1 MOL     -0.090894
     12 C6          6.5350   -3.2860    1.6830 c         1 MOL      0.582350
     13 O3          6.6660   -3.1910    0.4440 o         1 MOL     -0.678885
     14 O4          6.6870   -2.2570    2.3360 o         1 MOL     -0.678885
     15 H4          3.5820   -3.8450    2.2720 hn        1 MOL      0.330424
     16 H5          5.1540   -6.3220    2.7910 h1        1 MOL      0.029819
     17 H6          7.1590   -5.3770    2.0770 hc        1 MOL     -0.000914
     18 H7          6.4400   -4.5860    3.4030 hc        1 MOL     -0.000914
     19 N2          5.5470   -6.2130   -0.0270 n         1 MOL     -0.560559
     20 C7          5.4210   -6.3510   -1.5010 c3        1 MOL      0.485190
     21 C8          4.6810   -5.1400   -2.2150 c         1 MOL      0.211835
     22 O5          4.0170   -5.2370   -3.2060 o         1 MOL     -0.516245
     23 C9          4.6850   -7.6580   -1.7980 c3        1 MOL     -0.394289
     24 H8          6.4760   -6.2230    0.3820 hn        1 MOL      0.260234
     25 H9          6.4260   -6.3970   -1.8990 h1        1 MOL     -0.017266
     26 H10         4.9430   -8.3420   -0.9870 hc        1 MOL      0.094860
     27 H11         3.6250   -7.5920   -2.0210 hc        1 MOL      0.094860
     28 H12         5.1490   -8.0940   -2.6740 hc        1 MOL      0.094860
     29 N3          4.7690   -3.8980   -1.6960 n         1 MOL      0.087318
     30 C10         4.0630   -2.7170   -2.2080 c3        1 MOL      0.045419
     31 C11         5.0840   -1.6960   -2.5770 c         1 MOL      0.223587
     32 O6          6.2940   -1.7160   -2.1870 o         1 MOL     -0.506611
     33 C12         3.0210   -2.1320   -1.1790 c3        1 MOL     -0.026397
     34 C13         3.5860   -2.0060    0.2140 c         1 MOL      0.633686
     35 O7          4.5870   -1.2760    0.3850 o         1 MOL     -0.645218
     36 O8          3.0700   -2.5750    1.2270 o         1 MOL     -0.645218
     37 H13         5.4400   -3.7900   -0.9510 hn        1 MOL     -0.061588
     38 H14         3.4620   -2.9430   -3.0850 h1        1 MOL      0.074488
     39 H15         2.1600   -2.8010   -1.0860 hc        1 MOL      0.042444
     40 H16         2.5850   -1.1740   -1.4690 hc        1 MOL      0.042444
     41 N4          4.6280   -0.5840   -3.1950 n         1 MOL     -0.101858
     42 C14         5.3860    0.5880   -3.5940 c3        1 MOL     -0.371110
     43 C15         5.6170    1.5130   -2.4130 c         1 MOL      0.698302
     44 O9          5.7760    1.1080   -1.2380 o         1 MOL     -0.565464
     45 H17         3.7620   -0.7440   -3.7010 hn        1 MOL      0.219021
     46 H18         4.9330    1.0600   -4.4650 h1        1 MOL      0.149595
     47 H19         6.3510    0.2340   -3.9480 h1        1 MOL      0.149595
     48 N5          5.6450    2.8460   -2.7200 n         1 MOL     -0.681554
     49 C16         5.8910    3.9010   -1.7370 c3        1 MOL      0.212550
     50 C17         4.5930    4.4440   -1.0880 c         1 MOL      0.644049
     51 O10         3.5130    4.2810   -1.6080 o         1 MOL     -0.446325
     52 C18         6.8200    4.9150   -2.3450 c3        1 MOL     -0.370260
     53 C19         8.1080    4.3220   -2.8070 c         1 MOL      0.804638
     54 N6          8.3940    4.5290   -4.0680 n         1 MOL     -0.843370
     55 O11         8.8650    3.6930   -2.0810 o         1 MOL     -0.634220
     56 H20         5.4530    3.1730   -3.6550 hn        1 MOL      0.343819
     57 H21         6.4460    3.4660   -0.9050 h1        1 MOL     -0.037603
     58 H22         7.0440    5.6740   -1.6050 hc        1 MOL      0.102144
     59 H23         6.3360    5.3980   -3.1910 hc        1 MOL      0.102144
     60 H24         7.8050    5.0520   -4.7020 hn        1 MOL      0.383008
     61 H25         9.2740    4.1400   -4.3680 hn        1 MOL      0.383008
     62 N7          4.7470    5.0430    0.0580 n         1 MOL     -0.615231
     63 C20         3.6290    5.4010    0.9480 c3        1 MOL      0.083675
     64 C21         2.5710    6.3850    0.3080 c         1 MOL      0.582848
     65 O12         2.8020    7.0590   -0.7380 o         1 MOL     -0.560028
     66 H26         5.6640    5.0290    0.4730 hn        1 MOL      0.323172
     67 H27         4.0220    5.8540    1.8470 h1        1 MOL      0.055216
     68 H28         3.1360    4.4800    1.2780 h1        1 MOL      0.055216
     69 N8          1.4160    6.6510    0.9580 n         1 MOL     -0.586207
     70 C22         0.8050    5.8410    2.0850 c3        1 MOL     -0.083501
     71 C23         0.0650    4.6190    1.4650 c         1 MOL      0.621572
     72 O13        -0.4010    4.7620    0.3210 o         1 MOL     -0.506063
     73 C24        -0.1270    6.7210    2.9000 c3        1 MOL      0.423322
     74 C25        -0.8660    6.0760    4.0890 c3        1 MOL     -0.245980
     75 O14         0.6470    7.7610    3.4870 oh        1 MOL     -0.640202
     76 H29         0.9310    7.4540    0.5860 hn        1 MOL      0.352971
     77 H30         1.5860    5.5190    2.7650 h1        1 MOL      0.033600
     78 H31        -0.8530    7.1000    2.1810 h1        1 MOL      0.004609
     79 H32         1.0920    8.2600    2.8010 ho        1 MOL      0.355808
     80 H33        -1.3240    6.9650    4.5120 hc        1 MOL      0.072826
     81 H34        -1.6560    5.4490    3.6860 hc        1 MOL      0.072826
     82 H35        -0.2910    5.5610    4.8560 hc        1 MOL      0.072826
     83 N9         -0.0470    3.4940    2.1260 n         1 MOL     -0.471726
     84 C26        -0.8000    2.3650    1.6550 c3        1 MOL      0.007286
     85 C27        -2.0610    2.1320    2.5590 c         1 MOL      0.462958
     86 O15        -1.8880    1.9070    3.7000 o         1 MOL     -0.553689
     87 C28         0.0580    1.1130    1.5470 c3        1 MOL      0.221689
     88 C29         1.3020    1.3690    0.6230 c3        1 MOL     -0.254483
     89 C30        -0.7870   -0.0790    1.0260 c3        1 MOL     -0.116289
     90 C31         0.9950    1.5170   -0.9000 c3        1 MOL     -0.036050
     91 H36         0.4350    3.4860    2.9990 hn        1 MOL      0.264815
     92 H37        -1.1960    2.5710    0.6600 h1        1 MOL      0.120488
     93 H38         0.4520    0.8470    2.5230 hc        1 MOL     -0.005139
     94 H39         1.8210    0.4060    0.6640 hc        1 MOL      0.060516
     95 H40         1.8920    2.2400    0.9010 hc        1 MOL      0.060516
     96 H41        -1.3370    0.2270    0.1350 hc        1 MOL      0.042528
     97 H42        -0.1590   -0.9690    0.9370 hc        1 MOL      0.042528
     98 H43        -1.5380   -0.3060    1.7740 hc        1 MOL      0.042528
     99 H44         0.4590    0.6080   -1.1880 hc        1 MOL     -0.002863
    100 H45         0.4650    2.4150   -1.2130 hc        1 MOL     -0.002863
    101 H46         1.9170    1.5120   -1.4640 hc        1 MOL     -0.002863
    102 N10        -3.2820    2.1850    2.0410 n         1 MOL     -0.231708
    103 C32        -3.7680    2.2000    0.6700 c3        1 MOL     -0.133029
    104 C33        -5.2370    1.6350    0.7120 c         1 MOL      0.515979
    105 O16        -5.8060    1.3220    1.7590 o         1 MOL     -0.489741
    106 C34        -3.8580    3.6440    0.1680 c3        1 MOL      0.011140
    107 C35        -4.3570    4.7300    1.1610 c         1 MOL      0.649369
    108 O17        -5.5590    4.7740    1.3870 o         1 MOL     -0.698150
    109 O18        -3.5520    5.5400    1.7010 o         1 MOL     -0.698150
    110 H47        -3.9860    1.9560    2.7220 hn        1 MOL      0.236748
    111 H48        -3.1820    1.6010   -0.0300 h1        1 MOL      0.089556
    112 H49        -4.4690    3.7740   -0.7300 hc        1 MOL     -0.032837
    113 H50        -2.9010    3.9180   -0.2640 hc        1 MOL     -0.032837
    114 N11        -5.8180    1.3810   -0.4680 n         1 MOL     -0.529798
    115 C36        -7.1710    0.9170   -0.7110 c3        1 MOL      0.264252
    116 C37        -7.2550   -0.0050   -1.9710 c         1 MOL      0.341648
    117 O19        -6.3600    0.1630   -2.8530 o         1 MOL     -0.525493
    118 C38        -8.0920    2.1740   -0.9050 c3        1 MOL     -0.220588
    119 C39        -9.5140    2.0420   -1.4950 ca        1 MOL      0.095896
    120 C40        -9.7070    1.9060   -2.8900 ca        1 MOL     -0.157896
    121 C41       -10.6260    1.9590   -0.6200 ca        1 MOL     -0.157896
    122 C42       -11.0660    1.8180   -3.3220 ca        1 MOL     -0.113442
    123 C43       -11.9000    1.6720   -1.0120 ca        1 MOL     -0.113442
    124 C44       -12.1490    1.6930   -2.4300 ca        1 MOL     -0.134333
    125 H51        -5.2570    1.5980   -1.2850 hn        1 MOL      0.310454
    126 H52        -7.5470    0.4010    0.1720 h1        1 MOL      0.033132
    127 H53        -7.4920    2.7490   -1.6010 hc        1 MOL      0.098011
    128 H54        -8.0950    2.7740    0.0080 hc        1 MOL      0.098011
    129 H55        -8.9260    1.9690   -3.6380 ha        1 MOL      0.130625
    130 H56       -10.4800    2.0250    0.4500 ha        1 MOL      0.130625
    131 H57       -11.3270    1.8080   -4.3620 ha        1 MOL      0.101951
    132 H58       -12.7040    1.4490   -0.3280 ha        1 MOL      0.101951
    133 H59       -13.1190    1.5210   -2.8870 ha        1 MOL      0.090157
    134 N12        -8.2280   -0.9160   -2.0610 n         1 MOL      0.054191
    135 C45        -9.2350   -1.3730   -1.0590 c3        1 MOL     -0.097036
    136 C46        -8.5850   -2.0480    0.1230 c         1 MOL      0.493151
    137 O20        -8.8860   -1.7460    1.2820 o         1 MOL     -0.545202
    138 C47       -10.1180   -2.4110   -1.7730 c3        1 MOL      0.124982
    139 C48        -9.9640   -2.0420   -3.1680 c3        1 MOL      0.064488
    140 C49        -8.4460   -1.6950   -3.2640 c3        1 MOL     -0.191563
    141 H60        -9.8960   -0.5830   -0.7130 h1        1 MOL      0.070112
    142 H61        -9.7650   -3.4170   -1.5710 hc        1 MOL     -0.021658
    143 H62       -11.1860   -2.4840   -1.5730 hc        1 MOL     -0.021658
    144 H63       -10.2690   -2.7830   -3.9110 hc        1 MOL     -0.011356
    145 H64       -10.5190   -1.1270   -3.3490 hc        1 MOL     -0.011356
    146 H65        -7.7790   -2.5520   -3.2310 h1        1 MOL      0.068184
    147 H66        -8.3030   -1.0940   -4.1560 h1        1 MOL      0.068184
    148 N13        -7.5230   -2.8940   -0.1360 n         1 MOL     -0.367644
    149 C50        -6.6850   -3.6490    0.8770 c3        1 MOL     -0.005373
    150 C51        -7.5710   -4.6350    1.7380 c         1 MOL      0.392891
    151 O21        -8.0460   -5.6700    1.2960 o         1 MOL     -0.568044
    152 C52        -5.6600   -4.4500    0.1540 c3        1 MOL      0.149059
    153 C53        -4.5900   -3.5580   -0.4850 c3        1 MOL     -0.131820
    154 C54        -3.6520   -4.4010   -1.2540 c         1 MOL      0.701047
    155 O22        -2.8200   -5.1030   -0.6600 o         1 MOL     -0.698742
    156 O23        -3.7990   -4.4620   -2.5550 o         1 MOL     -0.698742
    157 H67        -7.2290   -3.1010   -1.0870 hn        1 MOL      0.300355
    158 H68        -6.1200   -2.9810    1.5450 h1        1 MOL      0.099612
    159 H69        -6.0170   -4.9750   -0.7300 hc        1 MOL     -0.010244
    160 H70        -5.2460   -5.2040    0.8200 hc        1 MOL     -0.010244
    161 H71        -4.0210   -3.1440    0.3520 hc        1 MOL     -0.028196
    162 H72        -4.9720   -2.7070   -1.0400 hc        1 MOL     -0.028196
    163 N14        -7.9880   -4.3100    2.9520 n         1 MOL     -0.202722
    164 C55        -7.7700   -3.1060    3.7580 c3        1 MOL     -0.203114
    165 H73        -6.9020   -3.2530    4.4010 h1        1 MOL      0.092572
    166 H74        -7.5960   -2.2550    3.1000 h1        1 MOL      0.092572
    167 H75        -8.6490   -2.9160    4.3730 h1        1 MOL      0.092572
    168 H76        -8.5020   -5.0910    3.3300 hn        1 MOL      0.218645
    169 Ca1         7.1620   -0.7080    0.1750 Ca        1 MOL      1.781424
    170 O24         5.7970    1.3030    1.4790 oh        1 MOL     -0.851523
    171 H77         5.9720    2.1710    1.8430 ho        1 MOL      0.411301
    172 H78         5.3080    1.4670    0.6740 ho        1 MOL      0.411301
    173 O25         9.1000   -0.7960   -1.7010 oh        1 MOL     -0.851523
    174 H79         9.5610   -1.5280   -2.0980 ho        1 MOL      0.411301
    175 H80         9.4620   -0.0130   -2.1310 ho        1 MOL      0.411301
    176 O26         8.4240    1.7500    0.1240 oh        1 MOL     -0.851523
    177 H81         8.5400    2.2300   -0.6950 ho        1 MOL      0.411301
    178 H82         8.6760    2.3760    0.8010 ho        1 MOL      0.411301
    179 O27         9.1080   -0.8210    2.0100 oh        1 MOL     -0.851523
    180 H83         8.7610   -1.0950    2.8590 ho        1 MOL      0.411301
    181 H84         9.9050   -0.3360    2.2270 ho        1 MOL      0.411301
@<TRIPOS>BOND
     1    1    2 1   
     2    1    4 1   
     3    1    5 1   
     4    1    6 1   
     5    2    3 2   
     6    2    7 1   
     7    7    8 1   
     8    7   15 1   
     9    8    9 1   
    10    8   11 1   
    11    8   16 1   
    12    9   10 2   
    13    9   19 1   
    14   11   12 1   
    15   11   17 1   
    16   11   18 1   
    17   12   13 1   
    18   12   14 1   
    19   19   20 1   
    20   19   24 1   
    21   20   21 1   
    22   20   23 1   
    23   20   25 1   
    24   21   22 2   
    25   21   29 1   
    26   23   26 1   
    27   23   27 1   
    28   23   28 1   
    29   29   30 1   
    30   29   37 1   
    31   30   31 1   
    32   30   33 1   
    33   30   38 1   
    34   31   32 2   
    35   31   41 1   
    36   33   34 1   
    37   33   39 1   
    38   33   40 1   
    39   34   35 1   
    40   34   36 1   
    41   41   42 1   
    42   41   45 1   
    43   42   43 1   
    44   42   46 1   
    45   42   47 1   
    46   43   44 2   
    47   43   48 1   
    48   48   49 1   
    49   48   56 1   
    50   49   50 1   
    51   49   52 1   
    52   49   57 1   
    53   50   51 2   
    54   50   62 1   
    55   52   53 1   
    56   52   58 1   
    57   52   59 1   
    58   53   54 1   
    59   53   55 2   
    60   54   60 1   
    61   54   61 1   
    62   62   63 1   
    63   62   66 1   
    64   63   64 1   
    65   63   67 1   
    66   63   68 1   
    67   64   65 2   
    68   64   69 1   
    69   69   70 1   
    70   69   76 1   
    71   70   71 1   
    72   70   73 1   
    73   70   77 1   
    74   71   72 2   
    75   71   83 1   
    76   73   74 1   
    77   73   75 1   
    78   73   78 1   
    79   74   80 1   
    80   74   81 1   
    81   74   82 1   
    82   75   79 1   
    83   83   84 1   
    84   83   91 1   
    85   84   85 1   
    86   84   87 1   
    87   84   92 1   
    88   85   86 2   
    89   85  102 1   
    90   87   88 1   
    91   87   89 1   
    92   87   93 1   
    93   88   90 1   
    94   88   94 1   
    95   88   95 1   
    96   89   96 1   
    97   89   97 1   
    98   89   98 1   
    99   90   99 1   
   100   90  100 1   
   101   90  101 1   
   102  102  103 1   
   103  102  110 1   
   104  103  104 1   
   105  103  106 1   
   106  103  111 1   
   107  104  105 2   
   108  104  114 1   
   109  106  107 1   
   110  106  112 1   
   111  106  113 1   
   112  107  108 1   
   113  107  109 1   
   114  114  115 1   
   115  114  125 1   
   116  115  116 1   
   117  115  118 1   
   118  115  126 1   
   119  116  117 2   
   120  116  134 1   
   121  118  119 1   
   122  118  127 1   
   123  118  128 1   
   124  119  120 ar  
   125  119  121 ar  
   126  120  122 ar  
   127  120  129 1   
   128  121  123 ar  
   129  121  130 1   
   130  122  124 ar  
   131  122  131 1   
   132  123  124 ar  
   133  123  132 1   
   134  124  133 1   
   135  134  135 1   
   136  134  140 1   
   137  135  136 1   
   138  135  138 1   
   139  135  141 1   
   140  136  137 2   
   141  136  148 1   
   142  138  139 1   
   143  138  142 1   
   144  138  143 1   
   145  139  140 1   
   146  139  144 1   
   147  139  145 1   
   148  140  146 1   
   149  140  147 1   
   150  148  149 1   
   151  148  157 1   
   152  149  150 1   
   153  149  152 1   
   154  149  158 1   
   155  150  151 2   
   156  150  163 1   
   157  152  153 1   
   158  152  159 1   
   159  152  160 1   
   160  153  154 1   
   161  153  161 1   
   162  153  162 1   
   163  154  155 1   
   164  154  156 1   
   165  163  164 1   
   166  163  168 1   
   167  164  165 1   
   168  164  166 1   
   169  164  167 1   
   170  170  171 1   
   171  170  172 1   
   172  173  174 1   
   173  173  175 1   
   174  176  177 1   
   175  176  178 1   
   176  179  180 1   
   177  179  181 1   
@<TRIPOS>SUBSTRUCTURE
     1 MOL         1 TEMP              0 ****  ****    0 ROOT
