@<TRIPOS>MOLECULE
MOL
  179   176     1     0     0
SMALL
resp


@<TRIPOS>ATOM
      1 C1          1.5860   -5.1230    6.1370 c3        1 MOL     -0.367996
      2 C2          1.6370   -4.6040    4.7000 c         1 MOL      0.750199
      3 O1          0.8400   -5.0050    3.8800 o         1 MOL     -0.614683
      4 H1          0.5520   -5.3380    6.4080 hc        1 MOL      0.109047
      5 H2          2.1790   -6.0330    6.2170 hc        1 MOL      0.109047
      6 H3          1.9880   -4.3670    6.8120 hc        1 MOL      0.109047
      7 N1          2.5570   -3.7000    4.2450 n         1 MOL     -0.620366
      8 C3          2.5930   -3.2090    2.8160 c3        1 MOL     -0.300499
      9 C4          2.8090   -4.3910    1.8260 c         1 MOL      0.824167
     10 O2          3.7950   -5.0910    1.8320 o         1 MOL     -0.563350
     11 C5          3.6970   -2.1330    2.6290 c3        1 MOL      0.010413
     12 C6          3.6360   -1.4090    1.2940 c         1 MOL      0.324853
     13 O3          4.1620   -0.2590    1.2220 o         1 MOL     -0.648760
     14 O4          2.8510   -1.8180    0.4210 o         1 MOL     -0.648760
     15 H4          3.2170   -3.2050    4.8190 hn        1 MOL      0.327541
     16 H5          1.5970   -2.8290    2.6250 h1        1 MOL      0.234827
     17 H6          4.6840   -2.5530    2.8260 hc        1 MOL      0.084556
     18 H7          3.6670   -1.2980    3.3270 hc        1 MOL      0.084556
     19 N2          1.9110   -4.5500    0.8380 n         1 MOL     -0.344711
     20 C7          1.9860   -5.6770   -0.1400 c3        1 MOL     -0.109613
     21 C8          3.2470   -5.5890   -1.0500 c         1 MOL      0.443053
     22 O5          3.6900   -6.5660   -1.6010 o         1 MOL     -0.529069
     23 C9          0.7030   -5.7210   -0.8960 c3        1 MOL      0.016953
     24 C10         0.4770   -4.5850   -1.8310 c3        1 MOL      0.053201
     25 C11        -0.7660   -4.7290   -2.7180 c3        1 MOL     -0.110432
     26 C12        -2.0910   -4.7600   -1.9850 c3        1 MOL      0.092318
     27 N3         -3.2560   -4.6800   -2.9210 n4        1 MOL     -0.287881
     28 H8          1.1050   -3.9410    0.8600 hn        1 MOL      0.156892
     29 H9          2.2020   -6.4660    0.5800 h1        1 MOL      0.117938
     30 H10        -0.0640   -5.7430   -0.1330 hc        1 MOL      0.024332
     31 H11         0.6070   -6.7050   -1.3570 hc        1 MOL      0.024332
     32 H12         1.2810   -4.4300   -2.5590 hc        1 MOL      0.043852
     33 H13         0.4400   -3.6630   -1.2520 hc        1 MOL      0.043852
     34 H14        -0.6390   -5.5580   -3.4050 hc        1 MOL      0.039634
     35 H15        -0.8560   -3.8290   -3.3240 hc        1 MOL      0.039634
     36 H16        -2.0880   -3.9120   -1.2990 hx        1 MOL      0.050300
     37 H17        -2.2260   -5.7160   -1.4730 hx        1 MOL      0.050300
     38 H18        -4.1370   -4.8280   -2.4470 hn        1 MOL      0.275388
     39 H19        -3.2590   -3.8400   -3.4740 hn        1 MOL      0.275388
     40 H20        -3.3030   -5.3880   -3.6430 hn        1 MOL      0.275388
     41 N4          3.7890   -4.3600   -1.2140 n         1 MOL     -0.054086
     42 C13         5.0120   -4.0520   -1.9580 c3        1 MOL      0.019445
     43 C14         6.1350   -3.2910   -1.2060 c         1 MOL      0.342195
     44 O6          7.2660   -3.1750   -1.6920 o         1 MOL     -0.504603
     45 C15         4.5310   -3.1900   -3.1970 c3        1 MOL     -0.207466
     46 C16         3.7040   -1.9320   -2.8900 c         1 MOL      0.795894
     47 O7          2.5070   -1.8690   -2.9400 o         1 MOL     -0.764926
     48 O8          4.2960   -0.9880   -2.3780 o         1 MOL     -0.764926
     49 H21         3.2990   -3.6100   -0.7510 hn        1 MOL      0.082639
     50 H22         5.4270   -5.0140   -2.3000 h1        1 MOL      0.114398
     51 H23         4.0030   -3.8520   -3.8800 hc        1 MOL      0.048966
     52 H24         5.4490   -2.8730   -3.6920 hc        1 MOL      0.048966
     53 N5          5.8270   -2.7280   -0.0370 n         1 MOL      0.102873
     54 C17         6.8480   -2.1870    0.8780 c3        1 MOL     -0.112995
     55 C18         7.3840   -0.8690    0.3820 c         1 MOL      0.452272
     56 O9          8.5540   -0.5610    0.7100 o         1 MOL     -0.542440
     57 H25         4.8730   -2.9570    0.2100 hn        1 MOL     -0.138243
     58 H26         7.6450   -2.9260    1.0120 h1        1 MOL      0.098633
     59 H27         6.4530   -2.0620    1.8850 h1        1 MOL      0.098633
     60 N6          6.7070   -0.1190   -0.5150 n         1 MOL     -0.128162
     61 C19         7.0730    1.1970   -0.9630 c3        1 MOL      0.057475
     62 C20         5.8550    2.1950   -1.0640 c         1 MOL      0.419498
     63 O10         4.7320    1.7010   -1.0380 o         1 MOL     -0.448863
     64 C21         7.7790    1.1020   -2.3140 c3        1 MOL     -0.262317
     65 C22         6.9550    1.5350   -3.4830 c         1 MOL      0.547582
     66 N7          5.8870    0.8710   -3.7300 n         1 MOL     -0.618613
     67 O11         7.1090    2.6390   -3.9660 o         1 MOL     -0.578828
     68 H28         5.8420   -0.4550   -0.9120 hn        1 MOL      0.126022
     69 H29         7.7720    1.6460   -0.2570 h1        1 MOL      0.054841
     70 H30         8.1360    0.0710   -2.3650 hc        1 MOL      0.100484
     71 H31         8.6350    1.7760   -2.3260 hc        1 MOL      0.100484
     72 H32         5.5910    0.0750   -3.1670 hn        1 MOL      0.308521
     73 H33         5.3070    0.9860   -4.5530 hn        1 MOL      0.308521
     74 N8          6.1190    3.5270   -0.9500 n         1 MOL     -0.394925
     75 C23         5.0410    4.5590   -1.2150 c3        1 MOL      0.009560
     76 C24         4.0470    4.7770   -0.1190 c         1 MOL      0.475308
     77 O12         4.5170    4.8720    1.0300 o         1 MOL     -0.507591
     78 H34         7.0780    3.8260   -0.9950 hn        1 MOL      0.329085
     79 H35         4.5430    4.2600   -2.1450 h1        1 MOL      0.066987
     80 H36         5.5960    5.4620   -1.4660 h1        1 MOL      0.066987
     81 N9          2.7470    4.7830   -0.3590 n         1 MOL     -0.456485
     82 C25         1.8080    4.7880    0.7520 c3        1 MOL      0.343332
     83 C26         1.5710    3.2860    1.1800 c         1 MOL      0.450834
     84 O13         2.3790    2.4380    0.7790 o         1 MOL     -0.421314
     85 C27         0.5790    5.5680    0.2970 c3        1 MOL     -0.320261
     86 C28         0.7560    7.1030    0.1850 ca        1 MOL      0.192788
     87 C29         0.0830    7.9560    1.0790 ca        1 MOL     -0.240225
     88 C30         1.5760    7.7130   -0.7570 ca        1 MOL     -0.240225
     89 C31         0.1900    9.3350    1.0350 ca        1 MOL     -0.186534
     90 C32         1.7310    9.1060   -0.8550 ca        1 MOL     -0.186534
     91 C33         1.0870    9.9010    0.1190 ca        1 MOL      0.270439
     92 O14         1.1260   11.2820    0.0320 oh        1 MOL     -0.459110
     93 H37         2.3780    4.6270   -1.2840 hn        1 MOL      0.255196
     94 H38         2.1900    5.2770    1.6410 h1        1 MOL      0.046155
     95 H39        -0.2280    5.5710    1.0270 hc        1 MOL      0.073143
     96 H40         0.2120    5.1100   -0.6200 hc        1 MOL      0.073143
     97 H41        -0.6320    7.5730    1.7960 ha        1 MOL      0.134186
     98 H42         2.0390    7.1300   -1.5390 ha        1 MOL      0.134186
     99 H43        -0.4460    9.9370    1.6670 ha        1 MOL      0.154134
    100 H44         2.3440    9.6310   -1.5820 ha        1 MOL      0.154134
    101 H45         0.7440   11.6230    0.8430 ho        1 MOL      0.349374
    102 N10         0.5510    3.0290    2.0200 n         1 MOL     -0.706135
    103 C34         0.3260    1.7530    2.7310 c3        1 MOL      0.117659
    104 C35         0.0810    0.5950    1.7450 c         1 MOL      0.615002
    105 O15         1.0160    0.1100    1.0450 o         1 MOL     -0.493055
    106 C36         1.5570    1.4440    3.7090 c3        1 MOL      0.170500
    107 C37         1.1520    0.1840    4.5850 c3        1 MOL     -0.343084
    108 C38         1.9070    2.6430    4.6390 c3        1 MOL     -0.368655
    109 C39         0.0130    0.4190    5.5780 c3        1 MOL     -0.175032
    110 H46        -0.0780    3.7440    2.3720 hn        1 MOL      0.372940
    111 H47        -0.5360    1.8400    3.3780 h1        1 MOL      0.055890
    112 H48         2.4460    1.2710    3.1090 hc        1 MOL      0.083887
    113 H49         2.0470    0.0030    5.1810 hc        1 MOL      0.124251
    114 H50         0.9440   -0.7030    3.9780 hc        1 MOL      0.124251
    115 H51         1.0330    3.2760    4.7930 hc        1 MOL      0.110685
    116 H52         2.1870    2.1960    5.5920 hc        1 MOL      0.110685
    117 H53         2.7270    3.2520    4.2660 hc        1 MOL      0.110685
    118 H54        -0.1090   -0.4590    6.2010 hc        1 MOL      0.057797
    119 H55         0.2050    1.2400    6.2590 hc        1 MOL      0.057797
    120 H56        -0.9400    0.4940    5.0440 hc        1 MOL      0.057797
    121 N11        -1.1590    0.1890    1.5320 n         1 MOL     -0.590369
    122 C40        -1.4640   -1.0910    0.7590 c3        1 MOL      0.078713
    123 C41        -2.8510   -0.9610    0.0790 c         1 MOL      0.527237
    124 O16        -3.2040   -1.6630   -0.8320 o         1 MOL     -0.472777
    125 C42        -1.4140   -2.3070    1.6920 c3        1 MOL      0.245085
    126 O17        -1.4740   -3.5010    0.8930 oh        1 MOL     -0.647428
    127 H57        -1.9220    0.5740    2.0770 hn        1 MOL      0.273532
    128 H58        -0.7460   -1.2490   -0.0440 h1        1 MOL      0.105272
    129 H59        -2.2050   -2.4140    2.4360 h1        1 MOL      0.002597
    130 H60        -0.4600   -2.2890    2.2280 h1        1 MOL      0.002597
    131 H61        -1.4840   -4.2230    1.5260 ho        1 MOL      0.430354
    132 N12        -3.7290   -0.1000    0.6210 n         1 MOL     -0.601434
    133 C43        -5.1380   -0.0540    0.2770 c3        1 MOL      0.052976
    134 C44        -5.3380    0.5270   -1.1340 c         1 MOL      0.581357
    135 O18        -4.5710    1.3930   -1.6480 o         1 MOL     -0.553615
    136 C45        -5.9320    0.5740    1.4280 c3        1 MOL     -0.099422
    137 H62        -3.4550    0.4930    1.3840 hn        1 MOL      0.355362
    138 H63        -5.3960   -1.1050    0.2410 h1        1 MOL      0.135414
    139 H64        -5.3290    0.4650    2.3300 hc        1 MOL      0.045972
    140 H65        -5.9100    1.6550    1.3620 hc        1 MOL      0.045972
    141 H66        -6.9160    0.0970    1.4510 hc        1 MOL      0.045972
    142 N13        -6.4240    0.1570   -1.8460 n         1 MOL     -0.679748
    143 C46        -7.5140   -0.8140   -1.5240 c3        1 MOL      0.503103
    144 C47        -8.8680   -0.4550   -2.2880 c         1 MOL      0.222536
    145 O19        -8.8610   -0.3190   -3.5390 o         1 MOL     -0.504833
    146 C48        -7.0450   -2.2290   -1.7420 c3        1 MOL     -0.308117
    147 H67        -6.4260    0.5410   -2.7880 hn        1 MOL      0.350142
    148 H68        -7.7510   -0.7980   -0.4590 h1        1 MOL     -0.068960
    149 H69        -6.2010   -2.5440   -1.1280 hc        1 MOL      0.067130
    150 H70        -7.9390   -2.8200   -1.5510 hc        1 MOL      0.067130
    151 H71        -6.6830   -2.3540   -2.7640 hc        1 MOL      0.067130
    152 N14       -10.0480   -0.4300   -1.6550 n         1 MOL     -0.187741
    153 C49       -10.3000   -0.6040   -0.2390 c3        1 MOL     -0.210180
    154 C50        -9.7260    0.5390    0.6780 c         1 MOL      0.675867
    155 O20        -9.4150    0.2280    1.8390 o         1 MOL     -0.558957
    156 C51       -11.7970   -0.8560   -0.1170 c3        1 MOL     -0.064189
    157 C52       -12.6630    0.3430   -0.4130 c3        1 MOL     -0.056323
    158 C53       -14.0990   -0.0570   -0.4100 c         1 MOL      0.673156
    159 O21       -14.6890    0.1710   -1.4910 o         1 MOL     -0.679824
    160 O22       -14.6320   -0.4520    0.6510 o         1 MOL     -0.679824
    161 H72       -10.7560   -0.0950   -2.2920 hn        1 MOL      0.278441
    162 H73        -9.7540   -1.5250   -0.0320 h1        1 MOL      0.107708
    163 H74       -12.0050   -1.2050    0.8930 hc        1 MOL      0.049189
    164 H75       -12.0590   -1.6580   -0.8090 hc        1 MOL      0.049189
    165 H76       -12.3480    0.7910   -1.3510 hc        1 MOL     -0.013350
    166 H77       -12.4810    1.1290    0.3260 hc        1 MOL     -0.013350
    167 N15        -9.3200    1.6750    0.1600 n         1 MOL     -0.373013
    168 C54        -8.9030    2.7620    1.0160 c3        1 MOL     -0.160886
    169 H78        -8.0100    2.4680    1.5670 h1        1 MOL      0.093541
    170 H79        -8.6830    3.6400    0.4080 h1        1 MOL      0.093541
    171 H80        -9.7020    2.9980    1.7190 h1        1 MOL      0.093541
    172 H81        -9.7100    2.0070   -0.7150 hn        1 MOL      0.278376
    173 Ca1         2.5960    0.2480   -0.9670 Ca        1 MOL      1.755722
    174 O23         2.1790    2.0580   -2.7620 oh        1 MOL     -0.893323
    175 H82         1.4550    2.6590   -2.9530 ho        1 MOL      0.440185
    176 H83         2.6760    2.0200   -3.5740 ho        1 MOL      0.440185
    177 O24         0.2180    0.0500   -1.9270 oh        1 MOL     -0.893323
    178 H84        -0.5050    0.6650   -2.0560 ho        1 MOL      0.440185
    179 H85        -0.0410   -0.7210   -2.4320 ho        1 MOL      0.440185
@<TRIPOS>BOND
     1    1    2 1   
     2    1    4 1   
     3    1    5 1   
     4    1    6 1   
     5    2    3 2   
     6    2    7 1   
     7    7    8 1   
     8    7   15 1   
     9    8    9 1   
    10    8   11 1   
    11    8   16 1   
    12    9   10 2   
    13    9   19 1   
    14   11   12 1   
    15   11   17 1   
    16   11   18 1   
    17   12   13 1   
    18   12   14 1   
    19   19   20 1   
    20   19   28 1   
    21   20   21 1   
    22   20   23 1   
    23   20   29 1   
    24   21   22 2   
    25   21   41 1   
    26   23   24 1   
    27   23   30 1   
    28   23   31 1   
    29   24   25 1   
    30   24   32 1   
    31   24   33 1   
    32   25   26 1   
    33   25   34 1   
    34   25   35 1   
    35   26   27 1   
    36   26   36 1   
    37   26   37 1   
    38   27   38 1   
    39   27   39 1   
    40   27   40 1   
    41   41   42 1   
    42   41   49 1   
    43   42   43 1   
    44   42   45 1   
    45   42   50 1   
    46   43   44 2   
    47   43   53 1   
    48   45   46 1   
    49   45   51 1   
    50   45   52 1   
    51   46   47 1   
    52   46   48 1   
    53   53   54 1   
    54   53   57 1   
    55   54   55 1   
    56   54   58 1   
    57   54   59 1   
    58   55   56 2   
    59   55   60 1   
    60   60   61 1   
    61   60   68 1   
    62   61   62 1   
    63   61   64 1   
    64   61   69 1   
    65   62   63 2   
    66   62   74 1   
    67   64   65 1   
    68   64   70 1   
    69   64   71 1   
    70   65   66 1   
    71   65   67 2   
    72   66   72 1   
    73   66   73 1   
    74   74   75 1   
    75   74   78 1   
    76   75   76 1   
    77   75   79 1   
    78   75   80 1   
    79   76   77 2   
    80   76   81 1   
    81   81   82 1   
    82   81   93 1   
    83   82   83 1   
    84   82   85 1   
    85   82   94 1   
    86   83   84 2   
    87   83  102 1   
    88   85   86 1   
    89   85   95 1   
    90   85   96 1   
    91   86   87 ar  
    92   86   88 ar  
    93   87   89 ar  
    94   87   97 1   
    95   88   90 ar  
    96   88   98 1   
    97   89   91 ar  
    98   89   99 1   
    99   90   91 ar  
   100   90  100 1   
   101   91   92 1   
   102   92  101 1   
   103  102  103 1   
   104  102  110 1   
   105  103  104 1   
   106  103  106 1   
   107  103  111 1   
   108  104  105 2   
   109  104  121 1   
   110  106  107 1   
   111  106  108 1   
   112  106  112 1   
   113  107  109 1   
   114  107  113 1   
   115  107  114 1   
   116  108  115 1   
   117  108  116 1   
   118  108  117 1   
   119  109  118 1   
   120  109  119 1   
   121  109  120 1   
   122  121  122 1   
   123  121  127 1   
   124  122  123 1   
   125  122  125 1   
   126  122  128 1   
   127  123  124 2   
   128  123  132 1   
   129  125  126 1   
   130  125  129 1   
   131  125  130 1   
   132  126  131 1   
   133  132  133 1   
   134  132  137 1   
   135  133  134 1   
   136  133  136 1   
   137  133  138 1   
   138  134  135 2   
   139  134  142 1   
   140  136  139 1   
   141  136  140 1   
   142  136  141 1   
   143  142  143 1   
   144  142  147 1   
   145  143  144 1   
   146  143  146 1   
   147  143  148 1   
   148  144  145 2   
   149  144  152 1   
   150  146  149 1   
   151  146  150 1   
   152  146  151 1   
   153  152  153 1   
   154  152  161 1   
   155  153  154 1   
   156  153  156 1   
   157  153  162 1   
   158  154  155 2   
   159  154  167 1   
   160  156  157 1   
   161  156  163 1   
   162  156  164 1   
   163  157  158 1   
   164  157  165 1   
   165  157  166 1   
   166  158  159 1   
   167  158  160 1   
   168  167  168 1   
   169  167  172 1   
   170  168  169 1   
   171  168  170 1   
   172  168  171 1   
   173  174  175 1   
   174  174  176 1   
   175  177  178 1   
   176  177  179 1   
@<TRIPOS>SUBSTRUCTURE
     1 MOL         1 TEMP              0 ****  ****    0 ROOT
