@<TRIPOS>MOLECULE
MOL
  181   177     1     0     0
SMALL
resp


@<TRIPOS>ATOM
      1 C1         -2.2210   -5.6190   -2.7830 c3        1 MOL     -0.538419
      2 C2         -3.7740   -5.6770   -2.2930 c         1 MOL      0.755587
      3 O1         -4.1180   -6.5210   -1.4610 o         1 MOL     -0.570901
      4 H1         -1.7650   -6.6010   -2.6600 hc        1 MOL      0.136734
      5 H2         -2.1810   -5.3290   -3.8330 hc        1 MOL      0.136734
      6 H3         -1.6770   -4.8900   -2.1830 hc        1 MOL      0.136734
      7 N1         -4.6780   -4.9480   -2.9830 n         1 MOL     -0.689837
      8 C3         -6.1490   -4.9520   -2.6000 c3        1 MOL      0.284983
      9 C4         -6.4750   -4.1690   -1.3570 c         1 MOL      0.435858
     10 O2         -7.2830   -3.1960   -1.4180 o         1 MOL     -0.427033
     11 C5         -7.0110   -4.5720   -3.7820 c3        1 MOL     -0.263435
     12 C6         -8.4960   -4.7990   -3.5740 c         1 MOL      0.642601
     13 O3         -8.8680   -5.9810   -3.2530 o         1 MOL     -0.705345
     14 O4         -9.2900   -3.8000   -3.4810 o         1 MOL     -0.705345
     15 H4         -4.4290   -4.3780   -3.7740 hn        1 MOL      0.342165
     16 H5         -6.4280   -5.9900   -2.4070 h1        1 MOL      0.036944
     17 H6         -6.6700   -5.0810   -4.6830 hc        1 MOL      0.018426
     18 H7         -6.8210   -3.5280   -4.0220 hc        1 MOL      0.018426
     19 N2         -5.9630   -4.4960   -0.1830 n         1 MOL     -0.432013
     20 C7         -6.0450   -3.7530    1.0660 c3        1 MOL      0.392052
     21 C8         -4.5910   -3.9110    1.7170 c         1 MOL      0.327594
     22 O5         -3.9790   -4.8860    1.4810 o         1 MOL     -0.498718
     23 C9         -7.1090   -4.4690    1.9270 c3        1 MOL     -0.267482
     24 H8         -5.3050   -5.2730   -0.1830 hn        1 MOL      0.222617
     25 H9         -6.2850   -2.7110    0.8390 h1        1 MOL     -0.093194
     26 H10        -8.1180   -4.2380    1.6050 hc        1 MOL      0.057708
     27 H11        -6.9410   -5.5520    1.8370 hc        1 MOL      0.057708
     28 H12        -6.9800   -4.2790    2.9920 hc        1 MOL      0.057708
     29 N3         -4.1680   -3.0300    2.5780 n         1 MOL     -0.041522
     30 C10        -4.7900   -1.7720    3.0020 c3        1 MOL     -0.101662
     31 C11        -4.8790   -0.7060    1.8510 c         1 MOL      0.672591
     32 O6         -4.2570   -0.8680    0.7860 o         1 MOL     -0.555608
     33 C12        -4.0240   -1.1380    4.1610 c3        1 MOL     -0.234922
     34 C13        -2.5520   -0.8240    3.9120 c         1 MOL      0.737762
     35 O7         -1.7440   -1.8020    4.0710 o         1 MOL     -0.729165
     36 O8         -2.0800    0.3280    3.7880 o         1 MOL     -0.729165
     37 H13        -3.2850   -3.1640    3.0510 hn        1 MOL      0.118219
     38 H14        -5.7710   -1.9370    3.4660 h1        1 MOL      0.042322
     39 H15        -4.1080   -1.7870    5.0310 hc        1 MOL      0.056627
     40 H16        -4.4430   -0.1440    4.3290 hc        1 MOL      0.056627
     41 N4         -5.5640    0.4230    2.1080 n         1 MOL     -0.522519
     42 C14        -5.4270    1.6300    1.2310 c3        1 MOL      0.003547
     43 C15        -6.5920    1.9740    0.2280 c         1 MOL      0.674568
     44 O9         -7.3690    1.1240   -0.1360 o         1 MOL     -0.522905
     45 H17        -6.1780    0.4110    2.9110 hn        1 MOL      0.318601
     46 H18        -4.4480    1.6790    0.7530 h1        1 MOL      0.077231
     47 H19        -5.5120    2.4610    1.9410 h1        1 MOL      0.077231
     48 N5         -6.6830    3.2410   -0.2480 n         1 MOL     -0.686382
     49 C16        -5.8610    4.4680    0.1800 c3        1 MOL      0.179285
     50 C17        -5.0430    5.0610   -0.9650 c         1 MOL      0.503672
     51 O10        -4.9260    6.2510   -1.0630 o         1 MOL     -0.491533
     52 C18        -6.9380    5.4950    0.7440 c3        1 MOL     -0.169154
     53 C19        -7.8130    4.9940    1.8840 c         1 MOL      0.555636
     54 N6         -9.1040    5.2040    1.7040 n         1 MOL     -0.691799
     55 O11        -7.4970    4.2920    2.8900 o         1 MOL     -0.529638
     56 H20        -7.4900    3.4360   -0.8320 hn        1 MOL      0.334143
     57 H21        -5.1790    4.2700    1.0090 h1        1 MOL      0.034809
     58 H22        -7.5510    5.8360   -0.0920 hc        1 MOL      0.062695
     59 H23        -6.4800    6.4510    1.0290 hc        1 MOL      0.062695
     60 H24        -9.4280    5.6300    0.8500 hn        1 MOL      0.341357
     61 H25        -9.6600    5.0170    2.5270 hn        1 MOL      0.341357
     62 N7         -4.6910    4.1950   -1.9440 n         1 MOL     -0.315428
     63 C20        -4.1750    4.6000   -3.2550 c3        1 MOL     -0.139097
     64 C21        -2.7380    5.2280   -3.2980 c         1 MOL      0.462995
     65 O12        -2.4850    6.1260   -4.1420 o         1 MOL     -0.530879
     66 H26        -4.8440    3.2110   -1.7750 hn        1 MOL      0.257141
     67 H27        -4.8900    5.3470   -3.6330 h1        1 MOL      0.105615
     68 H28        -4.2510    3.7410   -3.9150 h1        1 MOL      0.105615
     69 N8         -1.8900    4.9080   -2.3060 n         1 MOL     -0.284952
     70 C22        -0.5340    5.4660   -2.0870 c3        1 MOL     -0.008925
     71 C23         0.4040    4.3120   -1.6600 c         1 MOL      0.521809
     72 O13        -0.1250    3.2320   -1.3640 o         1 MOL     -0.522554
     73 C24        -0.5090    6.5750   -1.0090 c3        1 MOL      0.276432
     74 C25        -1.3060    7.7770   -1.4950 c3        1 MOL     -0.389817
     75 O14        -1.1520    6.3140    0.2710 oh        1 MOL     -0.591665
     76 H29        -2.1500    4.1410   -1.7040 hn        1 MOL      0.234792
     77 H30        -0.2130    5.8180   -3.0630 h1        1 MOL      0.077051
     78 H31         0.5240    6.7950   -0.7740 h1        1 MOL      0.001848
     79 H32        -0.5900    6.7190    0.9400 ho        1 MOL      0.399608
     80 H33        -1.2040    8.7150   -0.9570 hc        1 MOL      0.102903
     81 H34        -1.1390    7.9190   -2.5630 hc        1 MOL      0.102903
     82 H35        -2.3460    7.4990   -1.3080 hc        1 MOL      0.102903
     83 N9          1.7170    4.5330   -1.5980 n         1 MOL     -0.387009
     84 C26         2.7100    3.4360   -1.2250 c3        1 MOL     -0.140110
     85 C27         3.3160    3.6390    0.1930 c         1 MOL      0.640087
     86 O15         3.5410    4.7500    0.5980 o         1 MOL     -0.576030
     87 C28         3.7320    3.3300   -2.3140 c3        1 MOL      0.082052
     88 C29         5.0910    2.5990   -1.9540 c3        1 MOL     -0.099198
     89 C30         3.0870    2.7230   -3.6140 c3        1 MOL     -0.125356
     90 C31         6.1300    2.4230   -3.0350 c3        1 MOL     -0.049300
     91 H36         2.0650    5.4610   -1.8100 hn        1 MOL      0.253063
     92 H37         2.1750    2.4930   -1.2160 h1        1 MOL      0.201744
     93 H38         3.9630    4.3430   -2.6520 hc        1 MOL      0.022217
     94 H39         4.8570    1.5670   -1.7230 hc        1 MOL      0.039114
     95 H40         5.4870    3.0650   -1.0450 hc        1 MOL      0.039114
     96 H41         2.1550    3.2610   -3.7820 hc        1 MOL      0.024953
     97 H42         3.7440    3.0350   -4.4280 hc        1 MOL      0.024953
     98 H43         2.9470    1.6550   -3.4810 hc        1 MOL      0.024953
     99 H44         5.7280    1.7150   -3.7640 hc        1 MOL      0.005929
    100 H45         6.2340    3.3870   -3.5250 hc        1 MOL      0.005929
    101 H46         7.0950    2.1070   -2.6190 hc        1 MOL      0.005929
    102 N10         3.6950    2.4980    0.8070 n         1 MOL     -0.558670
    103 C32         4.4210    2.3950    2.1500 c3        1 MOL      0.254540
    104 C33         5.5450    1.3820    2.1690 c         1 MOL      0.342972
    105 O16         6.1530    1.1240    3.2390 o         1 MOL     -0.534141
    106 C34         3.5170    2.3230    3.2830 c3        1 MOL     -0.356732
    107 C35         2.4990    1.3210    3.2170 c         1 MOL      0.834016
    108 O17         1.3320    1.5990    2.8790 o         1 MOL     -0.757834
    109 O18         2.6910    0.1290    3.5370 o         1 MOL     -0.757834
    110 H47         3.5200    1.6290    0.3050 hn        1 MOL      0.333250
    111 H48         4.9860    3.3150    2.3420 h1        1 MOL      0.055188
    112 H49         2.8970    3.2150    3.2020 hc        1 MOL      0.089141
    113 H50         4.0060    2.2270    4.2570 hc        1 MOL      0.089141
    114 N11         5.7590    0.7900    1.0020 n         1 MOL     -0.373976
    115 C36         6.8720   -0.1270    0.6190 c3        1 MOL      0.333888
    116 C37         6.2730   -1.4880    0.1490 c         1 MOL      0.245376
    117 O19         6.5770   -1.9270   -0.9640 o         1 MOL     -0.537193
    118 C38         7.8760    0.5680   -0.3600 c3        1 MOL     -0.169206
    119 C39         9.2920    0.0440   -0.3830 ca        1 MOL      0.241805
    120 C40        10.0480    0.1030    0.8140 ca        1 MOL     -0.263360
    121 C41         9.8350   -0.3020   -1.6010 ca        1 MOL     -0.263360
    122 C42        11.4010   -0.3300    0.8170 ca        1 MOL     -0.043419
    123 C43        11.1090   -0.8740   -1.5630 ca        1 MOL     -0.043419
    124 C44        11.9280   -0.8020   -0.3760 ca        1 MOL     -0.213629
    125 H51         4.9690    0.8850    0.3760 hn        1 MOL      0.220423
    126 H52         7.4060   -0.4120    1.5330 h1        1 MOL     -0.020464
    127 H53         7.9110    1.6340   -0.1220 hc        1 MOL      0.061860
    128 H54         7.4060    0.5130   -1.3340 hc        1 MOL      0.061860
    129 H55         9.6740    0.5020    1.7420 ha        1 MOL      0.147256
    130 H56         9.3290   -0.2090   -2.5490 ha        1 MOL      0.147256
    131 H57        12.0640   -0.3810    1.6670 ha        1 MOL      0.093472
    132 H58        11.5260   -1.2710   -2.4850 ha        1 MOL      0.093472
    133 H59        12.9480   -1.1410   -0.3920 ha        1 MOL      0.114542
    134 N12         5.3800   -2.1540    0.8740 n         1 MOL      0.057730
    135 C45         5.0830   -3.5570    0.6520 c3        1 MOL     -0.049685
    136 C46         4.1730   -3.8310   -0.5380 c         1 MOL      0.265139
    137 O20         4.1390   -4.9430   -1.0420 o         1 MOL     -0.504843
    138 C47         4.3700   -4.0130    2.0120 c3        1 MOL     -0.092947
    139 C48         4.9250   -3.0860    3.0920 c3        1 MOL     -0.180272
    140 C49         5.0490   -1.8070    2.2520 c3        1 MOL      0.027467
    141 H60         5.9820   -4.1310    0.4420 h1        1 MOL      0.104078
    142 H61         3.2890   -3.8510    2.0430 hc        1 MOL      0.055186
    143 H62         4.5840   -5.0570    2.2280 hc        1 MOL      0.055186
    144 H63         4.2770   -3.0000    3.9630 hc        1 MOL      0.057852
    145 H64         5.9650   -3.2820    3.3660 hc        1 MOL      0.057852
    146 H65         4.0990   -1.2630    2.2070 h1        1 MOL      0.062663
    147 H66         5.7730   -1.1990    2.8000 h1        1 MOL      0.062663
    148 N13         3.6650   -2.7680   -1.1370 n         1 MOL     -0.011772
    149 C50         3.0280   -2.7260   -2.4230 c3        1 MOL     -0.163214
    150 C51         4.0460   -2.9550   -3.5580 c         1 MOL      0.471562
    151 O21         3.7040   -3.6670   -4.4800 o         1 MOL     -0.555397
    152 C52         2.3030   -1.4070   -2.7260 c3        1 MOL      0.131582
    153 C53         1.4220   -0.7850   -1.6880 c3        1 MOL     -0.199604
    154 C54         2.2160   -0.5050   -0.4150 c         1 MOL      0.530583
    155 O22         1.7270   -0.7260    0.7120 o         1 MOL     -0.643214
    156 O23         3.3430    0.0310   -0.5230 o         1 MOL     -0.643214
    157 H67         3.8120   -1.8610   -0.7060 hn        1 MOL      0.119817
    158 H68         2.2670   -3.5110   -2.4870 h1        1 MOL      0.103807
    159 H69         1.6740   -1.6100   -3.5960 hc        1 MOL     -0.019713
    160 H70         3.0480   -0.6460   -2.9690 hc        1 MOL     -0.019713
    161 H71         0.6750   -1.5510   -1.4770 hc        1 MOL      0.067843
    162 H72         0.9890    0.1720   -1.9890 hc        1 MOL      0.067843
    163 N14         5.1810   -2.3030   -3.5290 n         1 MOL     -0.080778
    164 C55         6.1470   -2.2830   -4.5960 c3        1 MOL     -0.172452
    165 H73         6.7200   -3.2100   -4.5840 h1        1 MOL      0.067054
    166 H74         5.6320   -2.1860   -5.5520 h1        1 MOL      0.067054
    167 H75         6.8220   -1.4380   -4.4600 h1        1 MOL      0.067054
    168 H76         5.3660   -1.6810   -2.7530 hn        1 MOL      0.185838
    169 Ca1         0.4990   -1.0510    2.9460 Ca        1 MOL      1.769860
    170 O24        -1.5540   -0.8350    1.0210 oh        1 MOL     -0.834368
    171 H77        -2.3700   -1.0010    0.5490 ho        1 MOL      0.409645
    172 H78        -1.3390    0.0730    0.8250 ho        1 MOL      0.409645
    173 O25        -0.1330   -3.3500    1.6280 oh        1 MOL     -0.834368
    174 H79        -0.6820   -3.7230    0.9370 ho        1 MOL      0.409645
    175 H80         0.2360   -4.1170    2.0780 ho        1 MOL      0.409645
    176 O26         0.1520    0.0520    5.4780 oh        1 MOL     -0.834368
    177 H81        -0.6660   -0.0830    5.9470 ho        1 MOL      0.409645
    178 H82         0.5630    0.8040    5.9200 ho        1 MOL      0.409645
    179 O27         1.4880   -2.8860    4.5080 oh        1 MOL     -0.834368
    180 H83         1.9080   -2.7380    5.3590 ho        1 MOL      0.409645
    181 H84         1.2840   -3.8200    4.5070 ho        1 MOL      0.409645
@<TRIPOS>BOND
     1    1    2 1   
     2    1    4 1   
     3    1    5 1   
     4    1    6 1   
     5    2    3 2   
     6    2    7 1   
     7    7    8 1   
     8    7   15 1   
     9    8    9 1   
    10    8   11 1   
    11    8   16 1   
    12    9   10 2   
    13    9   19 1   
    14   11   12 1   
    15   11   17 1   
    16   11   18 1   
    17   12   13 1   
    18   12   14 1   
    19   19   20 1   
    20   19   24 1   
    21   20   21 1   
    22   20   23 1   
    23   20   25 1   
    24   21   22 2   
    25   21   29 1   
    26   23   26 1   
    27   23   27 1   
    28   23   28 1   
    29   29   30 1   
    30   29   37 1   
    31   30   31 1   
    32   30   33 1   
    33   30   38 1   
    34   31   32 2   
    35   31   41 1   
    36   33   34 1   
    37   33   39 1   
    38   33   40 1   
    39   34   35 1   
    40   34   36 1   
    41   41   42 1   
    42   41   45 1   
    43   42   43 1   
    44   42   46 1   
    45   42   47 1   
    46   43   44 2   
    47   43   48 1   
    48   48   49 1   
    49   48   56 1   
    50   49   50 1   
    51   49   52 1   
    52   49   57 1   
    53   50   51 2   
    54   50   62 1   
    55   52   53 1   
    56   52   58 1   
    57   52   59 1   
    58   53   54 1   
    59   53   55 2   
    60   54   60 1   
    61   54   61 1   
    62   62   63 1   
    63   62   66 1   
    64   63   64 1   
    65   63   67 1   
    66   63   68 1   
    67   64   65 2   
    68   64   69 1   
    69   69   70 1   
    70   69   76 1   
    71   70   71 1   
    72   70   73 1   
    73   70   77 1   
    74   71   72 2   
    75   71   83 1   
    76   73   74 1   
    77   73   75 1   
    78   73   78 1   
    79   74   80 1   
    80   74   81 1   
    81   74   82 1   
    82   75   79 1   
    83   83   84 1   
    84   83   91 1   
    85   84   85 1   
    86   84   87 1   
    87   84   92 1   
    88   85   86 2   
    89   85  102 1   
    90   87   88 1   
    91   87   89 1   
    92   87   93 1   
    93   88   90 1   
    94   88   94 1   
    95   88   95 1   
    96   89   96 1   
    97   89   97 1   
    98   89   98 1   
    99   90   99 1   
   100   90  100 1   
   101   90  101 1   
   102  102  103 1   
   103  102  110 1   
   104  103  104 1   
   105  103  106 1   
   106  103  111 1   
   107  104  105 2   
   108  104  114 1   
   109  106  107 1   
   110  106  112 1   
   111  106  113 1   
   112  107  108 1   
   113  107  109 1   
   114  114  115 1   
   115  114  125 1   
   116  115  116 1   
   117  115  118 1   
   118  115  126 1   
   119  116  117 2   
   120  116  134 1   
   121  118  119 1   
   122  118  127 1   
   123  118  128 1   
   124  119  120 ar  
   125  119  121 ar  
   126  120  122 ar  
   127  120  129 1   
   128  121  123 ar  
   129  121  130 1   
   130  122  124 ar  
   131  122  131 1   
   132  123  124 ar  
   133  123  132 1   
   134  124  133 1   
   135  134  135 1   
   136  134  140 1   
   137  135  136 1   
   138  135  138 1   
   139  135  141 1   
   140  136  137 2   
   141  136  148 1   
   142  138  139 1   
   143  138  142 1   
   144  138  143 1   
   145  139  140 1   
   146  139  144 1   
   147  139  145 1   
   148  140  146 1   
   149  140  147 1   
   150  148  149 1   
   151  148  157 1   
   152  149  150 1   
   153  149  152 1   
   154  149  158 1   
   155  150  151 2   
   156  150  163 1   
   157  152  153 1   
   158  152  159 1   
   159  152  160 1   
   160  153  154 1   
   161  153  161 1   
   162  153  162 1   
   163  154  155 1   
   164  154  156 1   
   165  163  164 1   
   166  163  168 1   
   167  164  165 1   
   168  164  166 1   
   169  164  167 1   
   170  170  171 1   
   171  170  172 1   
   172  173  174 1   
   173  173  175 1   
   174  176  177 1   
   175  176  178 1   
   176  179  180 1   
   177  179  181 1   
@<TRIPOS>SUBSTRUCTURE
     1 MOL         1 TEMP              0 ****  ****    0 ROOT
