@<TRIPOS>MOLECULE
MOL
  195   189     1     0     0
SMALL
resp


@<TRIPOS>ATOM
      1 C1          0.9590    3.8590    3.1080 c3        1 MOL     -0.241407
      2 C2         -0.0620    3.8350    1.9220 c         1 MOL      0.670771
      3 O1         -0.6040    2.7800    1.5260 o         1 MOL     -0.529007
      4 H1          0.4390    4.1270    4.0290 hc        1 MOL      0.051211
      5 H2          1.4100    2.8730    3.2210 hc        1 MOL      0.051211
      6 H3          1.7370    4.5940    2.9040 hc        1 MOL      0.051211
      7 N1         -0.2550    5.0310    1.3160 n         1 MOL     -0.658433
      8 C3         -1.0630    5.3570    0.0940 c3        1 MOL     -0.025307
      9 C4         -2.5810    4.9960    0.0170 c         1 MOL      0.593948
     10 O2         -3.2360    4.9140   -0.9880 o         1 MOL     -0.481934
     11 C5         -0.1910    5.0310   -1.0760 c3        1 MOL     -0.240554
     12 C6          1.3130    5.4200   -0.9410 c         1 MOL      0.725462
     13 O3          1.6790    6.5290   -1.3760 o         1 MOL     -0.712704
     14 O4          2.1300    4.7320   -0.3110 o         1 MOL     -0.712704
     15 H4          0.2370    5.7990    1.7560 hn        1 MOL      0.306138
     16 H5         -1.1310    6.4420    0.1590 h1        1 MOL      0.100667
     17 H6         -0.6580    5.5130   -1.9330 hc        1 MOL      0.104336
     18 H7         -0.2630    3.9510   -1.2110 hc        1 MOL      0.104336
     19 N2         -3.1050    4.9050    1.2540 n         1 MOL     -0.292443
     20 C7         -4.5450    4.7010    1.5150 c3        1 MOL     -0.598734
     21 C8         -5.5420    5.6950    0.8500 c         1 MOL      0.627937
     22 O5         -5.1330    6.8160    0.6930 o         1 MOL     -0.566566
     23 C9         -4.8160    4.5340    3.0480 c3        1 MOL      0.235699
     24 C10        -4.9860    5.8970    3.7930 c3        1 MOL      0.134575
     25 C11        -3.6680    3.6840    3.7330 c3        1 MOL     -0.142341
     26 C12        -5.0710    5.8550    5.3320 c3        1 MOL     -0.238857
     27 H8         -2.5720    5.4210    1.9390 hn        1 MOL      0.289718
     28 H9         -4.7400    3.7240    1.0620 h1        1 MOL      0.243786
     29 H10        -5.6620    3.8530    3.1770 hc        1 MOL      0.007925
     30 H11        -5.9240    6.3460    3.4820 hc        1 MOL     -0.009126
     31 H12        -4.1550    6.5210    3.4680 hc        1 MOL     -0.009126
     32 H13        -3.5980    2.6900    3.3120 hc        1 MOL      0.026114
     33 H14        -2.6730    4.1330    3.6330 hc        1 MOL      0.026114
     34 H15        -3.8280    3.5880    4.8080 hc        1 MOL      0.026114
     35 H16        -4.0250    5.8180    5.6250 hc        1 MOL      0.042682
     36 H17        -5.5500    6.7480    5.7220 hc        1 MOL      0.042682
     37 H18        -5.6120    4.9520    5.6130 hc        1 MOL      0.042682
     38 N3         -6.8370    5.3690    0.5150 n         1 MOL     -0.331986
     39 C13        -7.5230    4.1030    0.7880 c3        1 MOL     -0.077797
     40 C14        -6.9410    2.9470   -0.0230 c         1 MOL      0.676071
     41 O6         -7.1480    1.8630    0.4360 o         1 MOL     -0.599084
     42 C15        -9.0050    4.2210    0.4390 c3        1 MOL     -0.087120
     43 C16        -9.3500    4.7850   -0.9840 c         1 MOL      0.574056
     44 O7         -9.9760    4.1100   -1.7980 o         1 MOL     -0.663202
     45 O8         -8.8550    5.9190   -1.3070 o         1 MOL     -0.663202
     46 H19        -7.3350    6.1240    0.0740 hn        1 MOL      0.191858
     47 H20        -7.4040    3.8370    1.8450 h1        1 MOL      0.045002
     48 H21        -9.5940    4.8030    1.1440 hc        1 MOL      0.022138
     49 H22        -9.4720    3.2740    0.6710 hc        1 MOL      0.022138
     50 N4         -6.1480    3.1120   -1.0790 n         1 MOL     -0.434635
     51 C17        -5.1530    2.1040   -1.5550 c3        1 MOL      0.002769
     52 C18        -5.8620    0.8990   -2.1960 c         1 MOL      0.557357
     53 O9         -6.9670    1.0050   -2.6940 o         1 MOL     -0.514150
     54 H23        -6.1330    3.9930   -1.5630 hn        1 MOL      0.314841
     55 H24        -4.6310    1.6550   -0.7030 h1        1 MOL      0.053416
     56 H25        -4.3190    2.4480   -2.1660 h1        1 MOL      0.053416
     57 N5         -5.2340   -0.2510   -2.1830 n         1 MOL     -0.527235
     58 C19        -5.7560   -1.4970   -2.7900 c3        1 MOL      0.127401
     59 C20        -6.2920   -2.6120   -1.8200 c         1 MOL      0.303423
     60 O10        -6.9950   -3.5230   -2.2370 o         1 MOL     -0.497855
     61 C21        -4.6700   -2.0460   -3.7070 c3        1 MOL     -0.297187
     62 C22        -3.2860   -2.2240   -3.0560 c         1 MOL      0.700304
     63 O11        -2.3140   -1.4710   -3.3290 o         1 MOL     -0.684753
     64 O12        -3.1920   -3.0140   -2.0760 o         1 MOL     -0.684753
     65 H26        -4.2890   -0.3260   -1.8280 hn        1 MOL      0.318503
     66 H27        -6.6020   -1.2430   -3.4300 h1        1 MOL      0.105738
     67 H28        -4.6170   -1.3780   -4.5660 hc        1 MOL      0.058296
     68 H29        -4.9860   -2.9670   -4.2050 hc        1 MOL      0.058296
     69 N6         -6.0800   -2.4000   -0.5090 n         1 MOL      0.030022
     70 C23        -6.4710   -3.3660    0.4740 c3        1 MOL     -0.513609
     71 C24        -5.7470   -4.7330    0.3980 c         1 MOL      0.675053
     72 O13        -6.1330   -5.7220    1.0520 o         1 MOL     -0.604174
     73 H30        -5.6550   -1.5260   -0.2890 hn        1 MOL      0.184899
     74 H31        -7.5260   -3.5710    0.3300 h1        1 MOL      0.165697
     75 H32        -6.2110   -2.9040    1.4250 h1        1 MOL      0.165697
     76 N7         -4.6120   -4.7060   -0.2870 n         1 MOL     -0.180852
     77 C25        -3.6800   -5.8530   -0.4330 c3        1 MOL      0.038188
     78 C26        -3.0820   -6.3590    0.9560 c         1 MOL      0.531875
     79 O14        -2.7660   -7.5300    1.0680 o         1 MOL     -0.496672
     80 C27        -4.3200   -6.9530   -1.2950 c3        1 MOL     -0.141910
     81 C28        -4.8290   -6.3950   -2.6530 c3        1 MOL      0.000523
     82 C29        -5.2780   -7.4540   -3.6790 c         1 MOL      0.610334
     83 N8         -5.8780   -7.0620   -4.8130 n         1 MOL     -0.830428
     84 O15        -5.1100   -8.6660   -3.5190 o         1 MOL     -0.577970
     85 H33        -4.4980   -3.9070   -0.8960 hn        1 MOL      0.038078
     86 H34        -2.7650   -5.5860   -0.9540 h1        1 MOL      0.126568
     87 H35        -5.2240   -7.3760   -0.8370 hc        1 MOL      0.054571
     88 H36        -3.5580   -7.7130   -1.4260 hc        1 MOL      0.054571
     89 H37        -4.0320   -5.8130   -3.1160 hc        1 MOL      0.039637
     90 H38        -5.7120   -5.7710   -2.4760 hc        1 MOL      0.039637
     91 H39        -6.3100   -6.1470   -4.8590 hn        1 MOL      0.362658
     92 H40        -5.9900   -7.8080   -5.4920 hn        1 MOL      0.362658
     93 N9         -2.8380   -5.4430    1.9420 n         1 MOL     -0.579539
     94 C30        -2.1440   -5.8740    3.1420 c3        1 MOL      0.037237
     95 C31        -0.9550   -5.0050    3.4680 c         1 MOL      0.580888
     96 O16        -0.1440   -5.4000    4.3200 o         1 MOL     -0.581800
     97 C32        -3.1120   -5.9870    4.3660 c3        1 MOL      0.298631
     98 C33        -3.8610   -4.7040    4.7650 c3        1 MOL     -0.361426
     99 C34        -4.1530   -7.0270    4.0740 c3        1 MOL     -0.361426
    100 H41        -3.0190   -4.4520    1.8560 hn        1 MOL      0.283291
    101 H42        -1.8100   -6.9080    3.0560 h1        1 MOL      0.091173
    102 H43        -2.4710   -6.2640    5.1930 hc        1 MOL     -0.037605
    103 H44        -3.1390   -4.0010    5.1860 hc        1 MOL      0.084076
    104 H45        -4.2560   -4.1860    3.8880 hc        1 MOL      0.084076
    105 H46        -4.6800   -4.7900    5.4700 hc        1 MOL      0.084076
    106 H47        -4.7180   -6.8660    3.1570 hc        1 MOL      0.084076
    107 H48        -3.6380   -7.9810    4.0500 hc        1 MOL      0.084076
    108 H49        -4.8480   -6.9760    4.9120 hc        1 MOL      0.084076
    109 N10        -0.8530   -3.8310    2.8460 n         1 MOL     -0.520060
    110 C35         0.3400   -2.9490    2.8150 c3        1 MOL      0.414397
    111 C36         1.2510   -3.2270    1.6320 c         1 MOL      0.494908
    112 O17         0.7870   -3.8230    0.6290 o         1 MOL     -0.531583
    113 C37        -0.0380   -1.4590    3.0540 c3        1 MOL     -0.379254
    114 C38         1.0160   -0.4490    2.8980 c         1 MOL      0.690817
    115 N11         0.9880    0.2970    1.8320 n         1 MOL     -0.815111
    116 O18         1.9730   -0.3900    3.6130 o         1 MOL     -0.595077
    117 H50        -1.4590   -3.6580    2.0630 hn        1 MOL      0.269001
    118 H51         0.9030   -3.2940    3.6820 h1        1 MOL      0.023320
    119 H52        -0.5670   -1.3370    4.0070 hc        1 MOL      0.083115
    120 H53        -0.8010   -1.2450    2.3120 hc        1 MOL      0.083115
    121 H54         0.0870    0.2320    1.3730 hn        1 MOL      0.402028
    122 H55         1.7070    0.9990    1.7470 hn        1 MOL      0.402028
    123 N12         2.4920   -2.6890    1.6700 n         1 MOL     -0.698208
    124 C39         3.4220   -2.9820    0.5940 c3        1 MOL      0.525641
    125 C40         4.8950   -2.9720    0.9760 c         1 MOL      0.459214
    126 O19         5.2010   -2.9340    2.1770 o         1 MOL     -0.539288
    127 C41         3.0420   -1.9480   -0.5440 c3        1 MOL     -0.188695
    128 C42         3.4760   -2.4400   -1.9020 ca        1 MOL     -0.114155
    129 C43         4.7240   -1.9970   -2.4290 ca        1 MOL     -0.018060
    130 C44         2.7170   -3.4680   -2.5210 ca        1 MOL     -0.018060
    131 C45         5.1230   -2.5640   -3.6590 ca        1 MOL     -0.301954
    132 C46         3.1810   -3.9850   -3.7410 ca        1 MOL     -0.301954
    133 C47         4.3050   -3.5250   -4.3640 ca        1 MOL      0.326630
    134 O20         4.5800   -4.1090   -5.6160 oh        1 MOL     -0.489267
    135 H56         2.8790   -2.2680    2.5050 hn        1 MOL      0.305656
    136 H57         3.2960   -3.9850    0.1800 h1        1 MOL      0.003501
    137 H58         3.4050   -0.9500   -0.3190 hc        1 MOL      0.091042
    138 H59         1.9540   -1.8600   -0.6050 hc        1 MOL      0.091042
    139 H60         5.1870   -1.1020   -2.0430 ha        1 MOL      0.129325
    140 H61         1.8200   -3.8020   -2.0070 ha        1 MOL      0.129325
    141 H62         6.0690   -2.2600   -4.1010 ha        1 MOL      0.155827
    142 H63         2.5100   -4.6540   -4.2680 ha        1 MOL      0.155827
    143 H64         5.3760   -3.7380   -5.9960 ho        1 MOL      0.350702
    144 N13         5.8110   -3.0180    0.0300 n         1 MOL     -0.695774
    145 C48         7.1970   -2.5910    0.2710 c3        1 MOL      0.289095
    146 C49         7.6390   -1.7830   -0.9220 c         1 MOL      0.591648
    147 O21         8.1080   -2.3100   -1.8830 o         1 MOL     -0.538545
    148 C50         8.0930   -3.8740    0.4610 c3        1 MOL      0.135042
    149 C51         9.4820   -3.5000    0.9990 c3        1 MOL     -0.327257
    150 C52        10.2690   -4.8370    1.0710 c         1 MOL      0.610715
    151 O22        10.2870   -5.5390    2.1280 o         1 MOL     -0.677884
    152 O23        10.8860   -5.2040   -0.0220 o         1 MOL     -0.677884
    153 H65         5.4670   -3.0100   -0.9160 hn        1 MOL      0.299525
    154 H66         7.2790   -2.0080    1.1900 h1        1 MOL      0.036076
    155 H67         8.2510   -4.3290   -0.5180 hc        1 MOL      0.004870
    156 H68         7.5220   -4.4750    1.1730 hc        1 MOL      0.004870
    157 H69         9.2920   -3.0870    1.9870 hc        1 MOL      0.072100
    158 H70         9.9730   -2.7700    0.3600 hc        1 MOL      0.072100
    159 N14         7.4840   -0.4550   -0.9110 n         1 MOL     -0.815766
    160 C53         6.8980    0.4250    0.1590 c3        1 MOL      0.495435
    161 C54         7.7760    0.4950    1.4190 c         1 MOL      0.474433
    162 O24         8.9670    0.4180    1.3400 o         1 MOL     -0.488393
    163 C55         6.8370    1.8430   -0.3830 c3        1 MOL     -0.259033
    164 C56         5.8770    1.9570   -1.5240 c3        1 MOL      0.127257
    165 C57         5.7380    3.4900   -1.9580 c         1 MOL      0.654316
    166 O25         6.7130    4.0440   -2.5050 o         1 MOL     -0.708832
    167 O26         4.5800    3.9650   -1.9530 o         1 MOL     -0.708832
    168 H71         7.7490   -0.0080   -1.7810 hn        1 MOL      0.393659
    169 H72         5.9020    0.0540    0.4060 h1        1 MOL     -0.097496
    170 H73         7.8340    2.1780   -0.6490 hc        1 MOL      0.029813
    171 H74         6.2970    2.4210    0.3770 hc        1 MOL      0.029813
    172 H75         4.9660    1.3590   -1.4220 hc        1 MOL     -0.034058
    173 H76         6.3760    1.4680   -2.3600 hc        1 MOL     -0.034058
    174 N15         7.0990    0.7120    2.5960 n         1 MOL     -0.413417
    175 C58         7.6990    0.5700    3.9090 c3        1 MOL     -0.448718
    176 H77         7.0050    0.9350    4.6670 h1        1 MOL      0.172952
    177 H78         7.9200   -0.4810    4.0970 h1        1 MOL      0.172952
    178 H79         8.6210    1.1500    3.9530 h1        1 MOL      0.172952
    179 H80         6.1100    0.9490    2.5640 hn        1 MOL      0.302333
    180 Ca1         4.1820    6.4110   -0.9680 Ca        1 MOL      1.747276
    181 O27         6.4480    7.8200    0.1380 oh        1 MOL     -0.867400
    182 H81         6.2170    8.1680    0.9960 ho        1 MOL      0.412091
    183 H82         7.3970    7.7390    0.1580 ho        1 MOL      0.412091
    184 O28         3.6060    5.9000   -3.8930 oh        1 MOL     -0.867400
    185 H83         3.9110    6.3640   -4.6730 ho        1 MOL      0.412091
    186 H84         4.1060    5.0790   -3.8920 ho        1 MOL      0.412091
    187 O29         3.1870    8.9190   -1.9450 oh        1 MOL     -0.867400
    188 H85         2.4910    9.5640   -1.8940 ho        1 MOL      0.412091
    189 H86         3.4790    8.9460   -2.8570 ho        1 MOL      0.412091
    190 O30         6.3050    6.5930   -2.6950 oh        1 MOL     -0.867400
    191 H87         6.5140    5.6610   -2.7700 ho        1 MOL      0.412091
    192 H88         7.1030    7.0330   -2.9810 ho        1 MOL      0.412091
    193 O31         4.7670    5.1090    1.1120 oh        1 MOL     -0.867400
    194 H89         5.4090    4.3960    1.0930 ho        1 MOL      0.412091
    195 H90         4.0990    4.8130    1.7380 ho        1 MOL      0.412091
@<TRIPOS>BOND
     1    1    2 1   
     2    1    4 1   
     3    1    5 1   
     4    1    6 1   
     5    2    3 2   
     6    2    7 1   
     7    7    8 1   
     8    7   15 1   
     9    8    9 1   
    10    8   11 1   
    11    8   16 1   
    12    9   10 2   
    13    9   19 1   
    14   11   12 1   
    15   11   17 1   
    16   11   18 1   
    17   12   13 1   
    18   12   14 1   
    19   19   20 1   
    20   19   27 1   
    21   20   21 1   
    22   20   23 1   
    23   20   28 1   
    24   21   22 2   
    25   21   38 1   
    26   23   24 1   
    27   23   25 1   
    28   23   29 1   
    29   24   26 1   
    30   24   30 1   
    31   24   31 1   
    32   25   32 1   
    33   25   33 1   
    34   25   34 1   
    35   26   35 1   
    36   26   36 1   
    37   26   37 1   
    38   38   39 1   
    39   38   46 1   
    40   39   40 1   
    41   39   42 1   
    42   39   47 1   
    43   40   41 2   
    44   40   50 1   
    45   42   43 1   
    46   42   48 1   
    47   42   49 1   
    48   43   44 1   
    49   43   45 1   
    50   50   51 1   
    51   50   54 1   
    52   51   52 1   
    53   51   55 1   
    54   51   56 1   
    55   52   53 2   
    56   52   57 1   
    57   57   58 1   
    58   57   65 1   
    59   58   59 1   
    60   58   61 1   
    61   58   66 1   
    62   59   60 2   
    63   59   69 1   
    64   61   62 1   
    65   61   67 1   
    66   61   68 1   
    67   62   63 1   
    68   62   64 1   
    69   69   70 1   
    70   69   73 1   
    71   70   71 1   
    72   70   74 1   
    73   70   75 1   
    74   71   72 2   
    75   71   76 1   
    76   76   77 1   
    77   76   85 1   
    78   77   78 1   
    79   77   80 1   
    80   77   86 1   
    81   78   79 2   
    82   78   93 1   
    83   80   81 1   
    84   80   87 1   
    85   80   88 1   
    86   81   82 1   
    87   81   89 1   
    88   81   90 1   
    89   82   83 1   
    90   82   84 2   
    91   83   91 1   
    92   83   92 1   
    93   93   94 1   
    94   93  100 1   
    95   94   95 1   
    96   94   97 1   
    97   94  101 1   
    98   95   96 2   
    99   95  109 1   
   100   97   98 1   
   101   97   99 1   
   102   97  102 1   
   103   98  103 1   
   104   98  104 1   
   105   98  105 1   
   106   99  106 1   
   107   99  107 1   
   108   99  108 1   
   109  109  110 1   
   110  109  117 1   
   111  110  111 1   
   112  110  113 1   
   113  110  118 1   
   114  111  112 2   
   115  111  123 1   
   116  113  114 1   
   117  113  119 1   
   118  113  120 1   
   119  114  115 1   
   120  114  116 2   
   121  115  121 1   
   122  115  122 1   
   123  123  124 1   
   124  123  135 1   
   125  124  125 1   
   126  124  127 1   
   127  124  136 1   
   128  125  126 2   
   129  125  144 1   
   130  127  128 1   
   131  127  137 1   
   132  127  138 1   
   133  128  129 ar  
   134  128  130 ar  
   135  129  131 ar  
   136  129  139 1   
   137  130  132 ar  
   138  130  140 1   
   139  131  133 ar  
   140  131  141 1   
   141  132  133 ar  
   142  132  142 1   
   143  133  134 1   
   144  134  143 1   
   145  144  145 1   
   146  144  153 1   
   147  145  146 1   
   148  145  148 1   
   149  145  154 1   
   150  146  147 2   
   151  146  159 1   
   152  148  149 1   
   153  148  155 1   
   154  148  156 1   
   155  149  150 1   
   156  149  157 1   
   157  149  158 1   
   158  150  151 1   
   159  150  152 1   
   160  159  160 1   
   161  159  168 1   
   162  160  161 1   
   163  160  163 1   
   164  160  169 1   
   165  161  162 2   
   166  161  174 1   
   167  163  164 1   
   168  163  170 1   
   169  163  171 1   
   170  164  165 1   
   171  164  172 1   
   172  164  173 1   
   173  165  166 1   
   174  165  167 1   
   175  174  175 1   
   176  174  179 1   
   177  175  176 1   
   178  175  177 1   
   179  175  178 1   
   180  181  182 1   
   181  181  183 1   
   182  184  185 1   
   183  184  186 1   
   184  187  188 1   
   185  187  189 1   
   186  190  191 1   
   187  190  192 1   
   188  193  194 1   
   189  193  195 1   
@<TRIPOS>SUBSTRUCTURE
     1 MOL         1 TEMP              0 ****  ****    0 ROOT
