@<TRIPOS>MOLECULE
MOL
  182   178     1     0     0
SMALL
resp


@<TRIPOS>ATOM
      1 C1          1.9260   -4.9130    6.0340 c3        1 MOL     -0.355115
      2 C2          1.8270   -4.5760    4.5320 c         1 MOL      0.674613
      3 O1          0.8960   -4.9730    3.8310 o         1 MOL     -0.565606
      4 H1          2.9640   -4.8300    6.3570 hc        1 MOL      0.092925
      5 H2          1.3120   -4.2160    6.6050 hc        1 MOL      0.092925
      6 H3          1.5730   -5.9300    6.2030 hc        1 MOL      0.092925
      7 N1          2.8000   -3.8560    4.0610 n         1 MOL     -0.415952
      8 C3          3.0110   -3.4150    2.7100 c3        1 MOL     -0.238043
      9 C4          3.3660   -4.5980    1.8350 c         1 MOL      0.821975
     10 O2          4.0910   -5.4850    2.3250 o         1 MOL     -0.579672
     11 C5          4.0310   -2.2460    2.6990 c3        1 MOL     -0.041923
     12 C6          3.8910   -1.3380    1.4960 c         1 MOL      0.533293
     13 O3          4.2950   -0.1670    1.4900 o         1 MOL     -0.685187
     14 O4          3.4160   -1.7940    0.4260 o         1 MOL     -0.685187
     15 H4          3.3970   -3.4140    4.7390 hn        1 MOL      0.278477
     16 H5          2.0550   -3.0310    2.3740 h1        1 MOL     -0.023118
     17 H6          5.0450   -2.6480    2.6090 hc        1 MOL      0.058724
     18 H7          3.8830   -1.6620    3.6080 hc        1 MOL      0.058724
     19 N2          3.0210   -4.5370    0.5040 n         1 MOL     -0.628686
     20 C7          3.4700   -5.4840   -0.5520 c3        1 MOL      0.116499
     21 C8          4.5390   -4.8850   -1.4430 c         1 MOL      0.571910
     22 O5          4.8120   -5.4520   -2.4850 o         1 MOL     -0.556338
     23 C9          2.2520   -5.9770   -1.3940 c3        1 MOL     -0.089761
     24 C10         1.4340   -4.9970   -2.1920 c3        1 MOL      0.274901
     25 C11         0.6320   -5.6970   -3.2950 c3        1 MOL     -0.034070
     26 C12        -0.0800   -4.7410   -4.3150 c3        1 MOL      0.010496
     27 N3         -1.2370   -5.4360   -4.9130 n4        1 MOL     -0.163562
     28 H8          2.5950   -3.6740    0.2110 hn        1 MOL      0.349828
     29 H9          3.9510   -6.3620   -0.1360 h1        1 MOL      0.086564
     30 H10         1.5680   -6.5170   -0.7370 hc        1 MOL      0.013780
     31 H11         2.6210   -6.6280   -2.1910 hc        1 MOL      0.013780
     32 H12         2.0870   -4.2660   -2.6600 hc        1 MOL     -0.048046
     33 H13         0.6480   -4.6370   -1.5190 hc        1 MOL     -0.048046
     34 H14        -0.0190   -6.4140   -2.7870 hc        1 MOL      0.017367
     35 H15         1.2860   -6.3650   -3.8500 hc        1 MOL      0.017367
     36 H16         0.6920   -4.4790   -5.0410 hx        1 MOL      0.067812
     37 H17        -0.4220   -3.8230   -3.8420 hx        1 MOL      0.067812
     38 H18        -0.9320   -6.3300   -5.2660 hn        1 MOL      0.248634
     39 H19        -1.9840   -5.6220   -4.2620 hn        1 MOL      0.248634
     40 H20        -1.5050   -4.9500   -5.7620 hn        1 MOL      0.248634
     41 N4          5.0340   -3.6460   -1.2140 n         1 MOL     -0.628934
     42 C13         6.0150   -2.9400   -2.1470 c3        1 MOL      0.298591
     43 C14         7.0510   -2.1000   -1.3630 c         1 MOL      0.316497
     44 O6          8.0720   -1.7280   -1.8760 o         1 MOL     -0.513824
     45 C15         5.3110   -2.1440   -3.2160 c3        1 MOL     -0.471010
     46 C16         4.3340   -1.1370   -2.6090 c         1 MOL      0.935065
     47 O7          3.0790   -1.3070   -2.7310 o         1 MOL     -0.836070
     48 O8          4.7740   -0.1620   -1.9970 o         1 MOL     -0.836070
     49 H21         4.6480   -3.1110   -0.4560 hn        1 MOL      0.299853
     50 H22         6.6470   -3.6480   -2.6800 h1        1 MOL      0.079499
     51 H23         4.7830   -2.8280   -3.8770 hc        1 MOL      0.128003
     52 H24         6.0850   -1.6870   -3.8310 hc        1 MOL      0.128003
     53 N5          6.7570   -1.6850   -0.1290 n         1 MOL     -0.125695
     54 C17         7.7230   -0.8300    0.6380 c3        1 MOL     -0.324318
     55 C18         7.6730    0.6800    0.3950 c         1 MOL      0.626935
     56 O9          8.5710    1.3610    0.9500 o         1 MOL     -0.585908
     57 H25         5.8950   -1.9860    0.2830 hn        1 MOL      0.152209
     58 H26         8.7380   -1.1740    0.4150 h1        1 MOL      0.155297
     59 H27         7.5250   -1.1720    1.6520 h1        1 MOL      0.155297
     60 N6          6.7950    1.1750   -0.4670 n         1 MOL     -0.446829
     61 C19         6.7680    2.5330   -0.9420 c3        1 MOL      0.240158
     62 C20         5.3030    3.1400   -0.8380 c         1 MOL      0.423489
     63 O10         4.3350    2.3700   -0.7560 o         1 MOL     -0.439876
     64 C21         7.4470    2.5710   -2.3120 c3        1 MOL     -0.395388
     65 C22         7.8460    3.9440   -2.8120 c         1 MOL      0.727754
     66 N7          9.0620    4.3860   -2.6750 n         1 MOL     -0.801420
     67 O11         6.9970    4.6170   -3.3250 o         1 MOL     -0.585885
     68 H28         6.1230    0.5680   -0.9310 hn        1 MOL      0.433421
     69 H29         7.3370    3.1870   -0.2790 h1        1 MOL      0.008470
     70 H30         6.8120    2.1820   -3.1050 hc        1 MOL      0.113217
     71 H31         8.2950    1.8920   -2.3380 hc        1 MOL      0.113217
     72 H32         9.7160    3.7870   -2.1940 hn        1 MOL      0.373266
     73 H33         9.4760    5.1750   -3.1520 hn        1 MOL      0.373266
     74 N8          5.1600    4.4330   -1.0060 n         1 MOL     -0.367089
     75 C23         3.9340    5.1720   -0.9540 c3        1 MOL     -0.090764
     76 C24         3.0810    4.9300    0.3020 c         1 MOL      0.570044
     77 O12         3.6940    4.9640    1.3980 o         1 MOL     -0.490440
     78 H34         5.9790    4.9150   -1.3620 hn        1 MOL      0.309994
     79 H35         3.3350    4.9040   -1.8230 h1        1 MOL      0.078668
     80 H36         4.1250    6.2430   -1.0790 h1        1 MOL      0.078668
     81 N9          1.7720    4.7620    0.1750 n         1 MOL     -0.564929
     82 C25         0.7810    4.3350    1.1130 c3        1 MOL      0.287465
     83 C26         1.0100    2.8680    1.5210 c         1 MOL      0.551835
     84 O13         1.8350    2.1650    0.8940 o         1 MOL     -0.578383
     85 C27        -0.6500    4.7360    0.6200 c3        1 MOL     -0.161706
     86 C28        -0.9430    6.2270    0.5380 ca        1 MOL      0.112794
     87 C29        -1.8180    6.6400   -0.4900 ca        1 MOL     -0.195998
     88 C30        -0.5910    7.1900    1.5200 ca        1 MOL     -0.195998
     89 C31        -2.2330    7.9970   -0.5630 ca        1 MOL     -0.228819
     90 C32        -0.8890    8.5690    1.4040 ca        1 MOL     -0.228819
     91 C33        -1.6640    8.9570    0.2980 ca        1 MOL      0.307339
     92 O14        -2.0480   10.2670    0.0600 oh        1 MOL     -0.449034
     93 H37         1.3390    4.8450   -0.7380 hn        1 MOL      0.259769
     94 H38         1.0260    4.7920    2.0660 h1        1 MOL      0.036535
     95 H39        -1.3950    4.1950    1.2120 hc        1 MOL      0.034208
     96 H40        -0.7000    4.2770   -0.3710 hc        1 MOL      0.034208
     97 H41        -2.2590    5.9770   -1.2150 ha        1 MOL      0.138117
     98 H42        -0.1000    6.8550    2.4320 ha        1 MOL      0.138117
     99 H43        -2.8210    8.3910   -1.3710 ha        1 MOL      0.168437
    100 H44        -0.5540    9.3080    2.1140 ha        1 MOL      0.168437
    101 H45        -2.7990   10.2200   -0.5360 ho        1 MOL      0.329297
    102 N10         0.2830    2.3770    2.5080 n         1 MOL     -0.530485
    103 C34         0.1610    0.9880    2.9790 c3        1 MOL     -0.094373
    104 C35        -0.1690   -0.0720    1.8870 c         1 MOL      0.284399
    105 O15         0.7860   -0.4320    1.1230 o         1 MOL     -0.116449
    106 C36         1.2870    0.5710    3.9510 c3        1 MOL      0.377465
    107 C37         1.1280   -0.7280    4.6920 c3        1 MOL     -0.195904
    108 C38         1.7000    1.6880    4.9570 c3        1 MOL     -0.229233
    109 C39         0.0920   -0.7770    5.8410 c3        1 MOL     -0.275490
    110 H46        -0.4180    3.0410    2.8110 hn        1 MOL      0.294424
    111 H47        -0.6590    1.0570    3.6840 h1        1 MOL      0.099349
    112 H48         2.2280    0.5390    3.3990 hc        1 MOL      0.007692
    113 H49         2.0990   -1.0240    5.0780 hc        1 MOL      0.088852
    114 H50         0.9210   -1.4900    3.9460 hc        1 MOL      0.088852
    115 H51         2.0640    2.5700    4.4330 hc        1 MOL      0.052143
    116 H52         0.8620    2.0940    5.5190 hc        1 MOL      0.052143
    117 H53         2.5010    1.3230    5.6100 hc        1 MOL      0.052143
    118 H54         0.2890   -0.1630    6.7160 hc        1 MOL      0.075883
    119 H55        -0.9040   -0.5330    5.4600 hc        1 MOL      0.075883
    120 H56        -0.0480   -1.8010    6.1810 hc        1 MOL      0.075883
    121 N11        -1.4020   -0.6140    1.9290 n         1 MOL     -0.297473
    122 C40        -1.8270   -1.7290    1.0200 c3        1 MOL     -0.037249
    123 C41        -3.4030   -1.9390    0.9810 c         1 MOL      0.641065
    124 O16        -4.0410   -2.5900    1.8110 o         1 MOL     -0.532419
    125 C42        -1.1880   -3.0060    1.5660 c3        1 MOL     -0.049446
    126 O17         0.0050   -3.2190    0.8130 oh        1 MOL     -0.296822
    127 H57        -2.0680   -0.3010    2.6220 hn        1 MOL      0.271038
    128 H58        -1.4730   -1.4990    0.0250 h1        1 MOL      0.087852
    129 H59        -1.8060   -3.8950    1.4350 h1        1 MOL      0.111283
    130 H60        -0.9970   -2.9250    2.6350 h1        1 MOL      0.111283
    131 H61         0.2610   -2.3040    0.7260 ho        1 MOL      0.047185
    132 N12        -4.0200   -1.2540    0.0310 n         1 MOL     -0.682388
    133 C43        -5.4480   -1.1060   -0.2350 c3        1 MOL      0.199861
    134 C44        -5.7010   -0.5330   -1.6500 c         1 MOL      0.641860
    135 O18        -4.8590   -0.0210   -2.3340 o         1 MOL     -0.616643
    136 C45        -6.0070   -0.1950    0.8390 c3        1 MOL     -0.146973
    137 H62        -3.4130   -0.7210   -0.5740 hn        1 MOL      0.276448
    138 H63        -5.8840   -2.1070   -0.2060 h1        1 MOL      0.095282
    139 H64        -5.7670   -0.5370    1.8470 hc        1 MOL      0.060727
    140 H65        -5.6020    0.8000    0.6850 hc        1 MOL      0.060727
    141 H66        -7.0810    0.0010    0.7940 hc        1 MOL      0.060727
    142 N13        -6.8820   -0.5140   -2.1450 n         1 MOL     -0.613488
    143 C46        -8.1650   -1.0120   -1.6420 c3        1 MOL      0.384611
    144 C47        -9.3290    0.0220   -1.9920 c         1 MOL      0.266831
    145 O19        -9.2920    0.6750   -3.0140 o         1 MOL     -0.471940
    146 C48        -8.4400   -2.4260   -2.2390 c3        1 MOL     -0.391583
    147 H67        -6.9290   -0.1020   -3.0750 hn        1 MOL      0.329654
    148 H68        -8.0420   -1.2110   -0.5820 h1        1 MOL     -0.058539
    149 H69        -7.5680   -3.0660   -2.1300 hc        1 MOL      0.108407
    150 H70        -9.3450   -2.8560   -1.8000 hc        1 MOL      0.108407
    151 H71        -8.6480   -2.2860   -3.3040 hc        1 MOL      0.108407
    152 N14       -10.3970    0.0140   -1.2180 n         1 MOL     -0.158639
    153 C49       -10.6380   -0.8260    0.0690 c3        1 MOL     -0.116239
    154 C50        -9.8100   -0.2880    1.2280 c         1 MOL      0.359272
    155 O20        -9.2010   -0.9120    2.0430 o         1 MOL     -0.491497
    156 C51       -12.1030   -1.0110    0.5570 c3        1 MOL      0.294489
    157 C52       -13.1780   -1.3320   -0.4740 c3        1 MOL     -0.327529
    158 C53       -13.2280   -0.2330   -1.5620 c         1 MOL      0.712254
    159 O21       -13.0220   -0.6340   -2.7510 o         1 MOL     -0.671531
    160 O22       -13.4230    0.9800   -1.2850 o         1 MOL     -0.671531
    161 H72       -11.2420    0.5040   -1.4990 hn        1 MOL      0.236566
    162 H73       -10.2470   -1.8300   -0.0750 h1        1 MOL      0.075269
    163 H74       -12.3320   -0.0490    1.0170 hc        1 MOL     -0.044295
    164 H75       -12.1150   -1.8040    1.2960 hc        1 MOL     -0.044295
    165 H76       -14.1200   -1.3240    0.0790 hc        1 MOL      0.058367
    166 H77       -12.9370   -2.2760   -0.9560 hc        1 MOL      0.058367
    167 N15        -9.7970    1.0740    1.2390 n         1 MOL     -0.166842
    168 C54        -9.2710    2.0070    2.3220 c3        1 MOL     -0.297448
    169 H78        -8.2810    2.3690    2.0400 h1        1 MOL      0.122898
    170 H79        -9.9480    2.8540    2.4330 h1        1 MOL      0.122898
    171 H80        -9.2040    1.4680    3.2660 h1        1 MOL      0.122898
    172 H81       -10.2760    1.5200    0.4750 hn        1 MOL      0.181851
    173 Ca1         2.4680    0.3470   -0.8750 Ca        1 MOL      1.703337
    174 O23         0.0590    1.7090   -1.3620 oh        1 MOL     -0.846213
    175 H82        -0.7800    1.4880   -1.7630 ho        1 MOL      0.412939
    176 H83         0.3690    2.4690   -1.8400 ho        1 MOL      0.412939
    177 O24         0.2930   -0.9930   -1.7500 oh        1 MOL     -0.846213
    178 H84        -0.4860   -0.4940   -1.9850 ho        1 MOL      0.412939
    179 H85         0.5180   -1.4790   -2.5400 ho        1 MOL      0.412939
    180 O25         2.3730    1.6610   -3.1380 oh        1 MOL     -0.846213
    181 H86         3.1230    2.1070   -3.5290 ho        1 MOL      0.412939
    182 H87         1.7980    1.4570   -3.8730 ho        1 MOL      0.412939
@<TRIPOS>BOND
     1    1    2 1   
     2    1    4 1   
     3    1    5 1   
     4    1    6 1   
     5    2    3 2   
     6    2    7 1   
     7    7    8 1   
     8    7   15 1   
     9    8    9 1   
    10    8   11 1   
    11    8   16 1   
    12    9   10 2   
    13    9   19 1   
    14   11   12 1   
    15   11   17 1   
    16   11   18 1   
    17   12   13 1   
    18   12   14 1   
    19   19   20 1   
    20   19   28 1   
    21   20   21 1   
    22   20   23 1   
    23   20   29 1   
    24   21   22 2   
    25   21   41 1   
    26   23   24 1   
    27   23   30 1   
    28   23   31 1   
    29   24   25 1   
    30   24   32 1   
    31   24   33 1   
    32   25   26 1   
    33   25   34 1   
    34   25   35 1   
    35   26   27 1   
    36   26   36 1   
    37   26   37 1   
    38   27   38 1   
    39   27   39 1   
    40   27   40 1   
    41   41   42 1   
    42   41   49 1   
    43   42   43 1   
    44   42   45 1   
    45   42   50 1   
    46   43   44 2   
    47   43   53 1   
    48   45   46 1   
    49   45   51 1   
    50   45   52 1   
    51   46   47 1   
    52   46   48 1   
    53   53   54 1   
    54   53   57 1   
    55   54   55 1   
    56   54   58 1   
    57   54   59 1   
    58   55   56 2   
    59   55   60 1   
    60   60   61 1   
    61   60   68 1   
    62   61   62 1   
    63   61   64 1   
    64   61   69 1   
    65   62   63 2   
    66   62   74 1   
    67   64   65 1   
    68   64   70 1   
    69   64   71 1   
    70   65   66 1   
    71   65   67 2   
    72   66   72 1   
    73   66   73 1   
    74   74   75 1   
    75   74   78 1   
    76   75   76 1   
    77   75   79 1   
    78   75   80 1   
    79   76   77 2   
    80   76   81 1   
    81   81   82 1   
    82   81   93 1   
    83   82   83 1   
    84   82   85 1   
    85   82   94 1   
    86   83   84 2   
    87   83  102 1   
    88   85   86 1   
    89   85   95 1   
    90   85   96 1   
    91   86   87 ar  
    92   86   88 ar  
    93   87   89 ar  
    94   87   97 1   
    95   88   90 ar  
    96   88   98 1   
    97   89   91 ar  
    98   89   99 1   
    99   90   91 ar  
   100   90  100 1   
   101   91   92 1   
   102   92  101 1   
   103  102  103 1   
   104  102  110 1   
   105  103  104 1   
   106  103  106 1   
   107  103  111 1   
   108  104  105 2   
   109  104  121 1   
   110  106  107 1   
   111  106  108 1   
   112  106  112 1   
   113  107  109 1   
   114  107  113 1   
   115  107  114 1   
   116  108  115 1   
   117  108  116 1   
   118  108  117 1   
   119  109  118 1   
   120  109  119 1   
   121  109  120 1   
   122  121  122 1   
   123  121  127 1   
   124  122  123 1   
   125  122  125 1   
   126  122  128 1   
   127  123  124 2   
   128  123  132 1   
   129  125  126 1   
   130  125  129 1   
   131  125  130 1   
   132  126  131 1   
   133  132  133 1   
   134  132  137 1   
   135  133  134 1   
   136  133  136 1   
   137  133  138 1   
   138  134  135 2   
   139  134  142 1   
   140  136  139 1   
   141  136  140 1   
   142  136  141 1   
   143  142  143 1   
   144  142  147 1   
   145  143  144 1   
   146  143  146 1   
   147  143  148 1   
   148  144  145 2   
   149  144  152 1   
   150  146  149 1   
   151  146  150 1   
   152  146  151 1   
   153  152  153 1   
   154  152  161 1   
   155  153  154 1   
   156  153  156 1   
   157  153  162 1   
   158  154  155 2   
   159  154  167 1   
   160  156  157 1   
   161  156  163 1   
   162  156  164 1   
   163  157  158 1   
   164  157  165 1   
   165  157  166 1   
   166  158  159 1   
   167  158  160 1   
   168  167  168 1   
   169  167  172 1   
   170  168  169 1   
   171  168  170 1   
   172  168  171 1   
   173  174  175 1   
   174  174  176 1   
   175  177  178 1   
   176  177  179 1   
   177  180  181 1   
   178  180  182 1   
@<TRIPOS>SUBSTRUCTURE
     1 MOL         1 TEMP              0 ****  ****    0 ROOT
