@<TRIPOS>MOLECULE
MOL
  192   187     1     0     0
SMALL
resp


@<TRIPOS>ATOM
      1 C1         -7.4770   -2.7130    3.8750 c3        1 MOL     -0.296096
      2 C2         -6.5150   -2.0300    2.8220 c         1 MOL      0.728531
      3 O1         -5.8550   -2.5800    1.9410 o         1 MOL     -0.634400
      4 H1         -7.1060   -3.7100    4.1130 hc        1 MOL      0.073347
      5 H2         -7.5080   -2.1120    4.7830 hc        1 MOL      0.073347
      6 H3         -8.4800   -2.7900    3.4540 hc        1 MOL      0.073347
      7 N1         -6.4930   -0.7260    2.9200 n         1 MOL     -0.497272
      8 C3         -5.6910    0.2530    2.2150 c3        1 MOL      0.284408
      9 C4         -4.1900   -0.0270    1.9830 c         1 MOL      0.013479
     10 O2         -3.7010    0.5040    1.0240 o         1 MOL     -0.106055
     11 C5         -6.0970    1.7080    2.5490 c3        1 MOL     -0.280717
     12 C6         -7.5910    2.0440    3.0170 c         1 MOL      0.744867
     13 O3         -8.1450    1.4260    3.9290 o         1 MOL     -0.685627
     14 O4         -8.1430    3.0530    2.5430 o         1 MOL     -0.685627
     15 H4         -7.1500   -0.3340    3.5870 hn        1 MOL      0.218254
     16 H5         -6.0230    0.1440    1.1830 h1        1 MOL      0.087545
     17 H6         -5.8130    2.3660    1.7230 hc        1 MOL      0.013418
     18 H7         -5.4980    2.0010    3.4090 hc        1 MOL      0.013418
     19 N2         -3.5870   -0.8700    2.7950 n         1 MOL     -0.124941
     20 C7         -2.1160   -1.0810    2.7630 c3        1 MOL      0.127045
     21 C8         -1.5480   -2.3750    2.0970 c         1 MOL      0.265797
     22 O5         -1.9880   -3.5390    2.3150 o         1 MOL     -0.467139
     23 C9         -1.7580   -0.8240    4.2530 c3        1 MOL      0.175192
     24 C10        -2.1300    0.5130    4.8770 c3        1 MOL      0.063202
     25 C11        -1.5580    0.5930    6.3240 c3        1 MOL     -0.168853
     26 C12        -1.7170    1.9310    6.9840 c3        1 MOL     -0.177505
     27 N3         -3.0630    2.1590    7.4960 n4        1 MOL     -0.242222
     28 H8         -4.2170   -1.5120    3.2440 hn        1 MOL      0.172661
     29 H9         -1.6590   -0.3040    2.1430 h1        1 MOL     -0.049603
     30 H10        -0.7110   -1.0590    4.4730 hc        1 MOL     -0.032799
     31 H11        -2.2470   -1.5350    4.9200 hc        1 MOL     -0.032799
     32 H12        -3.2100    0.6230    4.8030 hc        1 MOL     -0.011790
     33 H13        -1.6960    1.3340    4.3030 hc        1 MOL     -0.011790
     34 H14        -0.5010    0.3440    6.2700 hc        1 MOL      0.088237
     35 H15        -1.9790   -0.2310    6.8950 hc        1 MOL      0.088237
     36 H16        -1.3870    2.6640    6.2340 hx        1 MOL      0.162644
     37 H17        -1.0950    1.9250    7.8820 hx        1 MOL      0.162644
     38 H18        -3.2300    2.9760    8.0600 hn        1 MOL      0.304583
     39 H19        -3.7970    2.0150    6.8130 hn        1 MOL      0.304583
     40 H20        -3.1240    1.3810    8.1390 hn        1 MOL      0.304583
     41 N4         -0.3790   -2.3180    1.4300 n         1 MOL     -0.193947
     42 C13         0.4560   -1.2170    1.0290 c3        1 MOL      0.003622
     43 C14         1.0000   -0.2760    2.1150 c         1 MOL      0.515091
     44 O6          0.3940    0.7060    2.5270 o         1 MOL     -0.560814
     45 C15        -0.2390   -0.5280   -0.1710 c3        1 MOL     -0.338883
     46 C16        -0.1440   -1.2440   -1.5140 c         1 MOL      0.919682
     47 O7          0.5100   -2.3310   -1.5980 o         1 MOL     -0.781579
     48 O8         -0.9060   -0.8230   -2.4050 o         1 MOL     -0.781579
     49 H21        -0.1070   -3.2290    1.0810 hn        1 MOL      0.136962
     50 H22         1.3030   -1.6480    0.5050 h1        1 MOL     -0.041330
     51 H23         0.1420    0.4930   -0.2630 hc        1 MOL      0.173005
     52 H24        -1.2890   -0.4420    0.1100 hc        1 MOL      0.173005
     53 N5          2.2940   -0.4290    2.5460 n         1 MOL     -0.432266
     54 C17         3.2050   -1.5330    2.2450 c3        1 MOL     -0.063831
     55 C18         4.3330   -1.6810    3.2670 c         1 MOL      0.660655
     56 O9          4.4320   -0.9350    4.2140 o         1 MOL     -0.557862
     57 H25         2.5340    0.2590    3.2460 hn        1 MOL      0.301005
     58 H26         3.5840   -1.3570    1.2400 h1        1 MOL      0.131979
     59 H27         2.6410   -2.4580    2.2310 h1        1 MOL      0.131979
     60 N6          5.1540   -2.7050    3.0940 n         1 MOL     -0.595031
     61 C19         5.1960   -3.6870    1.9610 c3        1 MOL      0.129537
     62 C20         6.1300   -3.2560    0.8450 c         1 MOL      0.335050
     63 O10         7.0390   -2.4700    1.1160 o         1 MOL     -0.417265
     64 C21         5.6120   -5.0990    2.5190 c3        1 MOL     -0.138932
     65 C22         7.0250   -5.0900    3.0200 c         1 MOL      0.744337
     66 O11         7.4390   -4.2290    3.8770 o         1 MOL     -0.646114
     67 O12         7.7490   -6.0440    2.6900 o         1 MOL     -0.646114
     68 H28         5.9880   -2.6120    3.6580 hn        1 MOL      0.344450
     69 H29         4.1860   -3.7290    1.5440 h1        1 MOL     -0.027219
     70 H30         5.5200   -5.7690    1.6730 hc        1 MOL      0.011993
     71 H31         4.9450   -5.4520    3.3040 hc        1 MOL      0.011993
     72 N7          5.9490   -3.7460   -0.3620 n         1 MOL     -0.113730
     73 C23         6.6180   -3.2970   -1.5990 c3        1 MOL     -0.368898
     74 C24         6.2990   -1.8670   -1.9640 c         1 MOL      0.612239
     75 O13         7.1790   -1.1890   -2.5660 o         1 MOL     -0.549147
     76 H32         5.1650   -4.3850   -0.4390 hn        1 MOL      0.138229
     77 H33         6.2490   -3.8850   -2.4350 h1        1 MOL      0.159641
     78 H34         7.6850   -3.4520   -1.4360 h1        1 MOL      0.159641
     79 N8          5.1290   -1.3260   -1.5240 n         1 MOL     -0.382508
     80 C25         4.6930    0.0480   -1.8810 c3        1 MOL     -0.085156
     81 C26         5.0810    0.9740   -0.7140 c         1 MOL      0.661008
     82 O14         4.7850    0.6980    0.4250 o         1 MOL     -0.557435
     83 C27         3.2170    0.1550   -2.3310 c3        1 MOL      0.348217
     84 C28         2.8350   -0.6970   -3.5510 c3        1 MOL     -0.031347
     85 O15         2.9180    1.4910   -2.6120 oh        1 MOL     -0.600879
     86 H35         4.4560   -1.8890   -1.0270 hn        1 MOL      0.135809
     87 H36         5.3110    0.4400   -2.6930 h1        1 MOL      0.092240
     88 H37         2.5040   -0.2740   -1.6220 h1        1 MOL      0.005829
     89 H38         2.3890    1.8130   -1.8780 ho        1 MOL      0.334709
     90 H39         3.3230   -1.6760   -3.5700 hc        1 MOL     -0.008905
     91 H40         1.7760   -0.9530   -3.6180 hc        1 MOL     -0.008905
     92 H41         3.1950   -0.2480   -4.4890 hc        1 MOL     -0.008905
     93 N9          5.7070    2.1250   -0.9520 n         1 MOL     -0.439233
     94 C29         6.0550    3.1460    0.1070 c3        1 MOL     -0.051375
     95 C30         4.8350    4.0500    0.4890 c         1 MOL      0.364712
     96 O16         5.0570    5.0750    1.1330 o         1 MOL     -0.528590
     97 C31         7.3180    3.9070   -0.2180 c3        1 MOL      0.359001
     98 C32         7.1320    4.8720   -1.4670 c3        1 MOL     -0.018368
     99 C33         8.6190    3.0990   -0.4040 c3        1 MOL     -0.420170
    100 C34         8.1930    5.9650   -1.4080 c3        1 MOL     -0.154843
    101 H42         6.0160    2.2940   -1.9000 hn        1 MOL      0.240394
    102 H43         6.2610    2.7040    1.0790 h1        1 MOL      0.116268
    103 H44         7.4520    4.5150    0.6810 hc        1 MOL     -0.031044
    104 H45         6.0710    5.1420   -1.4800 hc        1 MOL      0.007561
    105 H46         7.3170    4.3530   -2.4120 hc        1 MOL      0.007561
    106 H47         8.5910    2.3590    0.3890 hc        1 MOL      0.106646
    107 H48         8.6770    2.6710   -1.4110 hc        1 MOL      0.106646
    108 H49         9.4480    3.7930   -0.2350 hc        1 MOL      0.106646
    109 H50         8.1420    6.4970   -0.4500 hc        1 MOL      0.034699
    110 H51         9.1750    5.4870   -1.4410 hc        1 MOL      0.034699
    111 H52         8.1060    6.6980   -2.2050 hc        1 MOL      0.034699
    112 N10         3.6860    3.7520   -0.0420 n         1 MOL     -0.003410
    113 C35         2.4740    4.5240   -0.0320 c3        1 MOL     -0.135003
    114 C36         1.2120    3.6290   -0.1650 c         1 MOL      0.437633
    115 O17         1.2860    2.6770   -0.9940 o         1 MOL     -0.350389
    116 C37         2.3510    5.6300   -1.0830 c3        1 MOL      0.307437
    117 C38         2.4430    5.0680   -2.5060 c3        1 MOL     -0.208420
    118 O18         3.4090    6.4810   -0.8520 oh        1 MOL     -0.571335
    119 H53         3.6350    2.8770   -0.5480 hn        1 MOL      0.027210
    120 H54         2.5070    5.0200    0.9360 h1        1 MOL      0.073396
    121 H55         1.4560    6.2520   -1.0650 h1        1 MOL     -0.005008
    122 H56         3.2800    6.9760   -0.0460 ho        1 MOL      0.385073
    123 H57         3.2480    4.3390   -2.4740 hc        1 MOL      0.063435
    124 H58         1.5580    4.5200   -2.8060 hc        1 MOL      0.063435
    125 H59         2.6620    5.8870   -3.1900 hc        1 MOL      0.063435
    126 N11         0.0810    3.9990    0.4280 n         1 MOL     -0.561952
    127 C39        -1.1680    3.1860    0.4450 c3        1 MOL      0.479632
    128 C40        -1.7870    2.9940   -0.9280 c         1 MOL      0.038610
    129 O19        -1.5160    3.8110   -1.8170 o         1 MOL     -0.481842
    130 C41        -2.1920    3.6130    1.5550 c3        1 MOL      0.033804
    131 C42        -2.6440    5.0570    1.3580 c3        1 MOL     -0.175099
    132 O20        -1.6290    3.7040    2.8650 oh        1 MOL     -0.583846
    133 H60         0.1190    4.7290    1.1210 hn        1 MOL      0.331390
    134 H61        -0.9970    2.2010    0.8750 h1        1 MOL      0.118217
    135 H62        -3.0660    2.9690    1.4530 h1        1 MOL      0.140983
    136 H63        -2.3430    4.0390    3.4200 ho        1 MOL      0.405999
    137 H64        -2.9320    5.1860    0.3200 hc        1 MOL      0.045203
    138 H65        -3.4590    5.3100    2.0450 hc        1 MOL      0.045203
    139 H66        -1.8620    5.8180    1.4230 hc        1 MOL      0.045203
    140 N12        -2.6520    2.0440   -1.1880 n         1 MOL      0.536146
    141 C43        -3.5740    1.9210   -2.3360 c3        1 MOL     -0.486471
    142 C44        -3.9680    0.5200   -2.7130 c         1 MOL      1.053956
    143 O21        -4.1640    0.2740   -3.9020 o         1 MOL     -0.646038
    144 C45        -4.7430    2.7720   -2.0290 c3        1 MOL      0.093036
    145 C46        -5.6920    3.1050   -3.2130 c3        1 MOL     -0.231386
    146 C47        -4.9880    3.4550   -4.5680 c3        1 MOL     -0.107199
    147 C48        -4.4920    4.9120   -4.6230 c3        1 MOL      0.160463
    148 N13        -3.8710    5.0670   -5.9580 n4        1 MOL     -0.470313
    149 H67        -2.6420    1.3600   -0.4480 hn        1 MOL     -0.687689
    150 H68        -3.0330    2.3790   -3.1630 h1        1 MOL      0.158717
    151 H69        -4.3060    3.7070   -1.6640 hc        1 MOL      0.037096
    152 H70        -5.3490    2.3110   -1.2500 hc        1 MOL      0.037096
    153 H71        -6.4300    3.8840   -3.0320 hc        1 MOL      0.099588
    154 H72        -6.2650    2.1960   -3.4030 hc        1 MOL      0.099588
    155 H73        -5.7230    3.2070   -5.3280 hc        1 MOL      0.056724
    156 H74        -4.1400    2.8130   -4.7840 hc        1 MOL      0.056724
    157 H75        -3.8040    5.1270   -3.8090 hx        1 MOL      0.053069
    158 H76        -5.3240    5.6080   -4.5770 hx        1 MOL      0.053069
    159 H77        -3.7640    6.0610   -6.0670 hn        1 MOL      0.353207
    160 H78        -3.0150    4.5310   -6.0100 hn        1 MOL      0.353207
    161 H79        -4.5510    4.8050   -6.6590 hn        1 MOL      0.353207
    162 N14        -4.0620   -0.4070   -1.7510 n         1 MOL     -0.394381
    163 C49        -4.2710   -1.8150   -2.0450 c3        1 MOL     -0.404887
    164 C50        -5.7660   -2.1160   -2.2740 c         1 MOL      0.713392
    165 O22        -6.5920   -1.5380   -1.5790 o         1 MOL     -0.555818
    166 C51        -3.6380   -2.6440   -0.8290 c3        1 MOL      0.790462
    167 C52        -3.8530   -4.1770   -0.8670 c3        1 MOL     -0.908473
    168 C53        -3.3200   -4.8330   -2.1440 c         1 MOL      1.085969
    169 O23        -4.1020   -4.9900   -3.1220 o         1 MOL     -0.888005
    170 O24        -2.1240   -5.2250   -2.1270 o         1 MOL     -0.888005
    171 H80        -3.6820   -0.1630   -0.8480 hn        1 MOL      0.120301
    172 H81        -3.6750   -2.1310   -2.9080 h1        1 MOL      0.045778
    173 H82        -4.0090   -2.1730    0.0820 hc        1 MOL     -0.084270
    174 H83        -2.5700   -2.4680   -0.7360 hc        1 MOL     -0.084270
    175 H84        -4.9110   -4.4430   -0.8000 hc        1 MOL      0.213969
    176 H85        -3.4170   -4.7100   -0.0230 hc        1 MOL      0.213969
    177 N15        -6.0200   -2.9370   -3.2530 n         1 MOL     -0.585930
    178 C54        -7.3960   -3.1790   -3.6680 c3        1 MOL     -0.037753
    179 H86        -7.7640   -4.0880   -3.1920 h1        1 MOL      0.057841
    180 H87        -8.0190   -2.3360   -3.3710 h1        1 MOL      0.057841
    181 H88        -7.4330   -3.2950   -4.7520 h1        1 MOL      0.057841
    182 H89        -5.3470   -3.6360   -3.5410 hn        1 MOL      0.518996
    183 Ca1         0.2980   -4.8960   -2.4810 Ca        1 MOL      1.662476
    184 O25         2.4480   -4.5240   -3.8750 oh        1 MOL     -0.881020
    185 H90         2.6960   -3.9910   -4.6280 ho        1 MOL      0.438976
    186 H91         3.2620   -4.9240   -3.5750 ho        1 MOL      0.438976
    187 O26        -0.9310   -3.0970   -3.9490 oh        1 MOL     -0.881020
    188 H92        -0.9440   -2.2730   -3.4640 ho        1 MOL      0.438976
    189 H93        -1.1550   -2.8470   -4.8540 ho        1 MOL      0.438976
    190 O27        -0.7990   -5.8350   -4.9320 oh        1 MOL     -0.881020
    191 H94        -1.5670   -6.2240   -4.5130 ho        1 MOL      0.438976
    192 H95        -1.1450   -5.0780   -5.4090 ho        1 MOL      0.438976
@<TRIPOS>BOND
     1    1    2 1   
     2    1    4 1   
     3    1    5 1   
     4    1    6 1   
     5    2    3 2   
     6    2    7 1   
     7    7    8 1   
     8    7   15 1   
     9    8    9 1   
    10    8   11 1   
    11    8   16 1   
    12    9   10 2   
    13    9   19 1   
    14   11   12 1   
    15   11   17 1   
    16   11   18 1   
    17   12   13 1   
    18   12   14 1   
    19   19   20 1   
    20   19   28 1   
    21   20   21 1   
    22   20   23 1   
    23   20   29 1   
    24   21   22 2   
    25   21   41 1   
    26   23   24 1   
    27   23   30 1   
    28   23   31 1   
    29   24   25 1   
    30   24   32 1   
    31   24   33 1   
    32   25   26 1   
    33   25   34 1   
    34   25   35 1   
    35   26   27 1   
    36   26   36 1   
    37   26   37 1   
    38   27   38 1   
    39   27   39 1   
    40   27   40 1   
    41   41   42 1   
    42   41   49 1   
    43   42   43 1   
    44   42   45 1   
    45   42   50 1   
    46   43   44 2   
    47   43   53 1   
    48   45   46 1   
    49   45   51 1   
    50   45   52 1   
    51   46   47 1   
    52   46   48 1   
    53   53   54 1   
    54   53   57 1   
    55   54   55 1   
    56   54   58 1   
    57   54   59 1   
    58   55   56 2   
    59   55   60 1   
    60   60   61 1   
    61   60   68 1   
    62   61   62 1   
    63   61   64 1   
    64   61   69 1   
    65   62   63 2   
    66   62   72 1   
    67   64   65 1   
    68   64   70 1   
    69   64   71 1   
    70   65   66 1   
    71   65   67 1   
    72   72   73 1   
    73   72   76 1   
    74   73   74 1   
    75   73   77 1   
    76   73   78 1   
    77   74   75 2   
    78   74   79 1   
    79   79   80 1   
    80   79   86 1   
    81   80   81 1   
    82   80   83 1   
    83   80   87 1   
    84   81   82 2   
    85   81   93 1   
    86   83   84 1   
    87   83   85 1   
    88   83   88 1   
    89   84   90 1   
    90   84   91 1   
    91   84   92 1   
    92   85   89 1   
    93   93   94 1   
    94   93  101 1   
    95   94   95 1   
    96   94   97 1   
    97   94  102 1   
    98   95   96 2   
    99   95  112 1   
   100   97   98 1   
   101   97   99 1   
   102   97  103 1   
   103   98  100 1   
   104   98  104 1   
   105   98  105 1   
   106   99  106 1   
   107   99  107 1   
   108   99  108 1   
   109  100  109 1   
   110  100  110 1   
   111  100  111 1   
   112  112  113 1   
   113  112  119 1   
   114  113  114 1   
   115  113  116 1   
   116  113  120 1   
   117  114  115 2   
   118  114  126 1   
   119  116  117 1   
   120  116  118 1   
   121  116  121 1   
   122  117  123 1   
   123  117  124 1   
   124  117  125 1   
   125  118  122 1   
   126  126  127 1   
   127  126  133 1   
   128  127  128 1   
   129  127  130 1   
   130  127  134 1   
   131  128  129 2   
   132  128  140 1   
   133  130  131 1   
   134  130  132 1   
   135  130  135 1   
   136  131  137 1   
   137  131  138 1   
   138  131  139 1   
   139  132  136 1   
   140  140  141 1   
   141  140  149 1   
   142  141  142 1   
   143  141  144 1   
   144  141  150 1   
   145  142  143 2   
   146  142  162 1   
   147  144  145 1   
   148  144  151 1   
   149  144  152 1   
   150  145  146 1   
   151  145  153 1   
   152  145  154 1   
   153  146  147 1   
   154  146  155 1   
   155  146  156 1   
   156  147  148 1   
   157  147  157 1   
   158  147  158 1   
   159  148  159 1   
   160  148  160 1   
   161  148  161 1   
   162  162  163 1   
   163  162  171 1   
   164  163  164 1   
   165  163  166 1   
   166  163  172 1   
   167  164  165 2   
   168  164  177 1   
   169  166  167 1   
   170  166  173 1   
   171  166  174 1   
   172  167  168 1   
   173  167  175 1   
   174  167  176 1   
   175  168  169 1   
   176  168  170 1   
   177  177  178 1   
   178  177  182 1   
   179  178  179 1   
   180  178  180 1   
   181  178  181 1   
   182  184  185 1   
   183  184  186 1   
   184  187  188 1   
   185  187  189 1   
   186  190  191 1   
   187  190  192 1   
@<TRIPOS>SUBSTRUCTURE
     1 MOL         1 TEMP              0 ****  ****    0 ROOT
