@<TRIPOS>MOLECULE
MOL
  188   182     1     0     0
SMALL
resp


@<TRIPOS>ATOM
      1 C1          4.5350    4.1580    1.6590 c3        1 MOL     -0.316711
      2 C2          5.6270    3.5520    0.7610 c         1 MOL      0.655915
      3 O1          5.3880    2.6000    0.0020 o         1 MOL     -0.536739
      4 H1          4.4180    3.5450    2.5520 hc        1 MOL      0.078686
      5 H2          4.8230    5.1690    1.9490 hc        1 MOL      0.078686
      6 H3          3.5920    4.1910    1.1140 hc        1 MOL      0.078686
      7 N1          6.8570    4.0850    0.8490 n         1 MOL     -0.444155
      8 C3          8.1340    3.6630    0.1970 c3        1 MOL      0.255314
      9 C4          8.4250    2.1680    0.1270 c         1 MOL      0.512093
     10 O2          8.8350    1.6400   -0.8900 o         1 MOL     -0.469007
     11 C5          8.2140    4.2630   -1.1960 c3        1 MOL     -0.325323
     12 C6          7.8500    5.7880   -1.2370 c         1 MOL      0.688184
     13 O3          8.6900    6.6900   -1.6620 o         1 MOL     -0.637771
     14 O4          6.7090    6.1380   -0.9350 o         1 MOL     -0.637771
     15 H4          6.9690    4.8240    1.5210 hn        1 MOL      0.258668
     16 H5          8.9000    4.1550    0.7920 h1        1 MOL      0.005839
     17 H6          7.5360    3.6890   -1.8120 hc        1 MOL      0.086552
     18 H7          9.2650    4.1390   -1.4880 hc        1 MOL      0.086552
     19 N2          8.1700    1.4880    1.3020 n         1 MOL     -0.651560
     20 C7          8.5840    0.0670    1.5230 c3        1 MOL      0.194865
     21 C8          7.4350   -0.9270    1.2360 c         1 MOL      0.408721
     22 O5          7.6260   -2.1240    1.3130 o         1 MOL     -0.591747
     23 C9          9.1070   -0.0130    2.9650 c3        1 MOL     -0.144609
     24 C10        10.1030   -1.1520    3.2000 c3        1 MOL      0.069359
     25 C11        10.7250   -1.0100    4.5630 c3        1 MOL      0.010553
     26 C12        11.8560   -2.0240    4.8540 c3        1 MOL      0.066461
     27 N3         12.4170   -1.8950    6.2330 n4        1 MOL     -0.196203
     28 H8          7.9820    2.0540    2.1090 hn        1 MOL      0.257734
     29 H9          9.3680   -0.2020    0.8280 h1        1 MOL      0.089753
     30 H10         8.2480   -0.0350    3.6450 hc        1 MOL      0.058010
     31 H11         9.5270    0.9280    3.3090 hc        1 MOL      0.058010
     32 H12        10.8260   -1.1380    2.3890 hc        1 MOL      0.014774
     33 H13         9.6640   -2.1470    3.1450 hc        1 MOL      0.014774
     34 H14         9.9220   -1.1280    5.2750 hc        1 MOL      0.001183
     35 H15        11.1860   -0.0190    4.5740 hc        1 MOL      0.001183
     36 H16        12.6380   -1.9450    4.1100 hx        1 MOL      0.059334
     37 H17        11.3460   -2.9720    4.7170 hx        1 MOL      0.059334
     38 H18        11.7270   -2.1810    6.9080 hn        1 MOL      0.216750
     39 H19        13.3370   -2.2520    6.4510 hn        1 MOL      0.216750
     40 H20        12.5170   -0.9040    6.4300 hn        1 MOL      0.216750
     41 N4          6.3090   -0.5050    0.7360 n         1 MOL     -0.138119
     42 C13         5.1840   -1.3770    0.3530 c3        1 MOL     -0.082746
     43 C14         5.3580   -1.7610   -1.1050 c         1 MOL      0.724738
     44 O6          5.7720   -0.9570   -1.9360 o         1 MOL     -0.507323
     45 C15         3.8460   -0.7330    0.7350 c3        1 MOL     -0.045632
     46 C16         2.6380   -1.6230    0.4070 c         1 MOL      0.589609
     47 O7          1.7540   -2.0020    1.1820 o         1 MOL     -0.615322
     48 O8          2.4520   -1.8510   -0.8050 o         1 MOL     -0.615322
     49 H21         6.2160    0.4790    0.5300 hn        1 MOL      0.160301
     50 H22         5.1300   -2.2990    0.9210 h1        1 MOL      0.038880
     51 H23         3.7660    0.2210    0.2180 hc        1 MOL      0.015082
     52 H24         3.8550   -0.4960    1.7940 hc        1 MOL      0.015082
     53 N5          4.9870   -2.9800   -1.5760 n         1 MOL     -0.642158
     54 C17         5.0640   -3.4530   -3.0010 c3        1 MOL      0.012071
     55 C18         4.3730   -2.5090   -4.0520 c         1 MOL      0.533171
     56 O9          4.6840   -2.6120   -5.2430 o         1 MOL     -0.567712
     57 H25         4.4820   -3.6720   -1.0330 hn        1 MOL      0.365049
     58 H26         4.5960   -4.4320   -2.9930 h1        1 MOL      0.070332
     59 H27         6.0900   -3.6960   -3.2840 h1        1 MOL      0.070332
     60 N6          3.3230   -1.7940   -3.6510 n         1 MOL     -0.308451
     61 C19         2.4990   -0.8710   -4.5120 c3        1 MOL      0.075447
     62 C20         1.8870    0.3360   -3.8130 c         1 MOL      0.384620
     63 O10         1.3650    1.1650   -4.5010 o         1 MOL     -0.489368
     64 C21         1.4430   -1.6820   -5.2270 c3        1 MOL     -0.438878
     65 C22         0.2660   -2.1010   -4.3750 c         1 MOL      0.901184
     66 N7         -0.9950   -2.0340   -4.8220 n         1 MOL     -0.849535
     67 O11         0.3740   -2.5000   -3.2440 o         1 MOL     -0.740926
     68 H28         3.0690   -1.8150   -2.6750 hn        1 MOL      0.134416
     69 H29         3.2050   -0.5430   -5.2760 h1        1 MOL      0.140145
     70 H30         1.8880   -2.6130   -5.5800 hc        1 MOL      0.126302
     71 H31         1.0570   -1.0240   -5.9960 hc        1 MOL      0.126302
     72 H32        -1.2360   -1.5760   -5.6860 hn        1 MOL      0.382743
     73 H33        -1.7060   -2.2490   -4.1260 hn        1 MOL      0.382743
     74 N8          2.0000    0.3270   -2.4690 n         1 MOL     -0.079558
     75 C23         1.6640    1.5660   -1.6860 c3        1 MOL     -0.338554
     76 C24         0.2290    1.9400   -1.6650 c         1 MOL      0.740555
     77 O12        -0.6400    1.0660   -1.7670 o         1 MOL     -0.563079
     78 H34         2.4400   -0.4270   -1.9550 hn        1 MOL      0.132501
     79 H35         2.2480    2.4680   -1.8540 h1        1 MOL      0.158976
     80 H36         1.7730    1.2680   -0.6420 h1        1 MOL      0.158976
     81 N9         -0.0280    3.1980   -1.3740 n         1 MOL     -0.665190
     82 C25        -1.3710    3.6180   -0.9570 c3        1 MOL      0.296808
     83 C26        -2.0370    2.8650    0.2480 c         1 MOL      0.259693
     84 O13        -1.3790    2.1290    0.9680 o         1 MOL     -0.495498
     85 C27        -1.2480    5.1450   -0.6600 c3        1 MOL     -0.110356
     86 C28        -2.5820    5.8360   -0.2540 ca        1 MOL     -0.000430
     87 C29        -3.7460    5.7540   -1.0510 ca        1 MOL     -0.168274
     88 C30        -2.6800    6.4970    0.9830 ca        1 MOL     -0.168274
     89 C31        -5.0030    6.1810   -0.5900 ca        1 MOL     -0.223846
     90 C32        -3.9450    6.8150    1.4740 ca        1 MOL     -0.223846
     91 C33        -5.0370    6.7440    0.6830 ca        1 MOL      0.376974
     92 O14        -6.1760    7.1280    1.2070 oh        1 MOL     -0.552412
     93 H37         0.7350    3.8410   -1.2510 hn        1 MOL      0.338169
     94 H38        -2.0180    3.4530   -1.8200 h1        1 MOL      0.013078
     95 H39        -0.8590    5.5810   -1.5840 hc        1 MOL      0.071677
     96 H40        -0.5310    5.4150    0.0990 hc        1 MOL      0.071677
     97 H41        -3.7490    5.3140   -2.0370 ha        1 MOL      0.133027
     98 H42        -1.8210    6.6500    1.6190 ha        1 MOL      0.133027
     99 H43        -5.8660    6.0600   -1.2190 ha        1 MOL      0.136290
    100 H44        -4.1010    7.2110    2.4610 ha        1 MOL      0.136290
    101 H45        -6.2180    7.6080    2.0360 ho        1 MOL      0.406930
    102 N10        -3.3380    3.0270    0.4110 n         1 MOL      0.021619
    103 C34        -4.2120    2.3700    1.3110 c3        1 MOL     -0.066471
    104 C35        -5.3170    1.8230    0.4890 c         1 MOL      0.330221
    105 O15        -5.5010    0.6350    0.4030 o         1 MOL     -0.390222
    106 C36        -4.6320    3.2110    2.5600 c3        1 MOL      0.219248
    107 C37        -3.3780    3.3310    3.4600 c3        1 MOL      0.038634
    108 C38        -5.7700    2.5060    3.3440 c3        1 MOL     -0.369128
    109 C39        -3.7620    4.0770    4.7550 c3        1 MOL     -0.434910
    110 H46        -3.7420    3.6100   -0.3090 hn        1 MOL      0.034545
    111 H47        -3.7400    1.5030    1.7780 h1        1 MOL      0.090105
    112 H48        -4.9350    4.2010    2.2190 hc        1 MOL     -0.040944
    113 H49        -2.5940    3.8770    2.9420 hc        1 MOL      0.056782
    114 H50        -2.9780    2.3680    3.7510 hc        1 MOL      0.056782
    115 H51        -6.6960    2.5430    2.7850 hc        1 MOL      0.099313
    116 H52        -5.4080    1.5210    3.6470 hc        1 MOL      0.099313
    117 H53        -6.0850    3.0440    4.2350 hc        1 MOL      0.099313
    118 H54        -4.2260    3.3930    5.4730 hc        1 MOL      0.097503
    119 H55        -2.8690    4.4250    5.2820 hc        1 MOL      0.097503
    120 H56        -4.4030    4.9480    4.6780 hc        1 MOL      0.097503
    121 N11        -5.9680    2.6980   -0.2830 n         1 MOL     -0.436926
    122 C40        -6.7210    2.1900   -1.4940 c3        1 MOL      0.095398
    123 C41        -7.8190    1.2910   -1.0510 c         1 MOL      0.232750
    124 O16        -8.1170    0.2750   -1.7430 o         1 MOL     -0.462346
    125 C42        -7.1160    3.4330   -2.3150 c3        1 MOL      0.086519
    126 O17        -5.9390    4.0910   -2.8490 oh        1 MOL     -0.553660
    127 H57        -5.7340    3.6720   -0.2600 hn        1 MOL      0.302768
    128 H58        -6.0670    1.6240   -2.1470 h1        1 MOL      0.123020
    129 H59        -7.6380    4.1300   -1.6650 h1        1 MOL      0.065761
    130 H60        -7.7330    3.0600   -3.1320 h1        1 MOL      0.065761
    131 H61        -5.3610    3.5600   -3.4010 ho        1 MOL      0.397183
    132 N12        -8.4810    1.4100    0.1370 n         1 MOL     -0.224780
    133 C43        -9.4520    0.4250    0.6180 c3        1 MOL      0.155328
    134 C44        -9.1440   -1.0380    0.5390 c         1 MOL      0.639053
    135 O18       -10.1060   -1.8460    0.6980 o         1 MOL     -0.575936
    136 C45       -10.8690    0.7480    0.1040 c3        1 MOL     -0.220612
    137 H62        -8.2810    2.2920    0.5860 hn        1 MOL      0.212253
    138 H63        -9.4300    0.5140    1.7080 h1        1 MOL      0.035664
    139 H64       -11.2530    0.1830   -0.7450 hc        1 MOL      0.059548
    140 H65       -11.6640    0.6970    0.8450 hc        1 MOL      0.059548
    141 H66       -10.8710    1.8350   -0.0680 hc        1 MOL      0.059548
    142 N13        -7.8510   -1.4140    0.4460 n         1 MOL     -0.682586
    143 C46        -7.4210   -2.7780    0.2730 c3        1 MOL      0.492770
    144 C47        -6.3520   -3.1750    1.2570 c         1 MOL      0.471287
    145 O19        -5.7240   -2.3340    1.8120 o         1 MOL     -0.453498
    146 C48        -6.8460   -2.9520   -1.1470 c3        1 MOL     -0.366054
    147 H67        -7.0330   -0.8290    0.3150 hn        1 MOL      0.258249
    148 H68        -8.2420   -3.4720    0.4690 h1        1 MOL     -0.041470
    149 H69        -7.6360   -2.6490   -1.8260 hc        1 MOL      0.107620
    150 H70        -6.0370   -2.2360   -1.3060 hc        1 MOL      0.107620
    151 H71        -6.4960   -3.9660   -1.3110 hc        1 MOL      0.107620
    152 N14        -6.0970   -4.5000    1.3920 n         1 MOL     -0.579126
    153 C49        -4.9430   -5.0890    2.0860 c3        1 MOL      0.011426
    154 C50        -4.8900   -4.6870    3.5780 c         1 MOL      0.394846
    155 O20        -3.7930   -4.6930    4.2390 o         1 MOL     -0.502430
    156 C51        -3.6640   -4.9420    1.3040 c3        1 MOL     -0.064328
    157 C52        -3.7240   -5.2750   -0.2150 c3        1 MOL     -0.078849
    158 C53        -2.3880   -5.2770   -0.9600 c         1 MOL      0.757364
    159 O21        -1.8380   -4.1510   -1.1790 o         1 MOL     -0.758988
    160 O22        -1.8530   -6.3490   -1.2880 o         1 MOL     -0.758988
    161 H72        -6.6750   -5.1660    0.9060 hn        1 MOL      0.309477
    162 H73        -5.1130   -6.1680    2.0050 h1        1 MOL      0.077367
    163 H74        -2.9180   -5.5320    1.8470 hc        1 MOL      0.073769
    164 H75        -3.3370   -3.9030    1.3770 hc        1 MOL      0.073769
    165 H76        -4.4010   -4.5890   -0.7330 hc        1 MOL      0.004876
    166 H77        -4.2450   -6.2310   -0.2910 hc        1 MOL      0.004876
    167 N15        -6.0350   -4.4170    4.1900 n         1 MOL     -0.311242
    168 C54        -6.1960   -3.6010    5.4500 c3        1 MOL     -0.049866
    169 H78        -6.4390   -4.2610    6.2820 h1        1 MOL      0.072901
    170 H79        -5.2650   -3.0750    5.6640 h1        1 MOL      0.072901
    171 H80        -7.0000   -2.8770    5.3150 h1        1 MOL      0.072901
    172 H81        -6.8880   -4.5070    3.6530 hn        1 MOL      0.241176
    173 Ca1         0.6340   -3.6270   -0.8390 Ca        1 MOL      1.780670
    174 O23         0.8600   -6.4380   -0.9680 oh        1 MOL     -0.849364
    175 H82         1.1400   -7.2830   -0.6400 ho        1 MOL      0.411794
    176 H83        -0.0200   -6.5750   -1.3080 ho        1 MOL      0.411794
    177 O24         3.0230   -4.7570    0.3840 oh        1 MOL     -0.849364
    178 H84         3.7360   -5.3710    0.2360 ho        1 MOL      0.411794
    179 H85         2.8420   -4.8250    1.3240 ho        1 MOL      0.411794
    180 O25        -0.0840   -4.3360    1.7660 oh        1 MOL     -0.849364
    181 H86        -0.2370   -5.2640    1.9350 ho        1 MOL      0.411794
    182 H87         0.1500   -3.9710    2.6270 ho        1 MOL      0.411794
    183 O26         2.1390   -4.9470   -3.0430 oh        1 MOL     -0.849364
    184 H88         2.4310   -5.8240   -2.8040 ho        1 MOL      0.411794
    185 H89         1.5930   -5.0710   -3.8220 ho        1 MOL      0.411794
    186 O27        -1.2250   -1.4260   -0.3610 oh        1 MOL     -0.849364
    187 H90        -2.1340   -1.2980   -0.0860 ho        1 MOL      0.411794
    188 H91        -0.9790   -0.6020   -0.7730 ho        1 MOL      0.411794
@<TRIPOS>BOND
     1    1    2 1   
     2    1    4 1   
     3    1    5 1   
     4    1    6 1   
     5    2    3 2   
     6    2    7 1   
     7    7    8 1   
     8    7   15 1   
     9    8    9 1   
    10    8   11 1   
    11    8   16 1   
    12    9   10 2   
    13    9   19 1   
    14   11   12 1   
    15   11   17 1   
    16   11   18 1   
    17   12   13 1   
    18   12   14 1   
    19   19   20 1   
    20   19   28 1   
    21   20   21 1   
    22   20   23 1   
    23   20   29 1   
    24   21   22 2   
    25   21   41 1   
    26   23   24 1   
    27   23   30 1   
    28   23   31 1   
    29   24   25 1   
    30   24   32 1   
    31   24   33 1   
    32   25   26 1   
    33   25   34 1   
    34   25   35 1   
    35   26   27 1   
    36   26   36 1   
    37   26   37 1   
    38   27   38 1   
    39   27   39 1   
    40   27   40 1   
    41   41   42 1   
    42   41   49 1   
    43   42   43 1   
    44   42   45 1   
    45   42   50 1   
    46   43   44 2   
    47   43   53 1   
    48   45   46 1   
    49   45   51 1   
    50   45   52 1   
    51   46   47 1   
    52   46   48 1   
    53   53   54 1   
    54   53   57 1   
    55   54   55 1   
    56   54   58 1   
    57   54   59 1   
    58   55   56 2   
    59   55   60 1   
    60   60   61 1   
    61   60   68 1   
    62   61   62 1   
    63   61   64 1   
    64   61   69 1   
    65   62   63 2   
    66   62   74 1   
    67   64   65 1   
    68   64   70 1   
    69   64   71 1   
    70   65   66 1   
    71   65   67 2   
    72   66   72 1   
    73   66   73 1   
    74   74   75 1   
    75   74   78 1   
    76   75   76 1   
    77   75   79 1   
    78   75   80 1   
    79   76   77 2   
    80   76   81 1   
    81   81   82 1   
    82   81   93 1   
    83   82   83 1   
    84   82   85 1   
    85   82   94 1   
    86   83   84 2   
    87   83  102 1   
    88   85   86 1   
    89   85   95 1   
    90   85   96 1   
    91   86   87 ar  
    92   86   88 ar  
    93   87   89 ar  
    94   87   97 1   
    95   88   90 ar  
    96   88   98 1   
    97   89   91 ar  
    98   89   99 1   
    99   90   91 ar  
   100   90  100 1   
   101   91   92 1   
   102   92  101 1   
   103  102  103 1   
   104  102  110 1   
   105  103  104 1   
   106  103  106 1   
   107  103  111 1   
   108  104  105 2   
   109  104  121 1   
   110  106  107 1   
   111  106  108 1   
   112  106  112 1   
   113  107  109 1   
   114  107  113 1   
   115  107  114 1   
   116  108  115 1   
   117  108  116 1   
   118  108  117 1   
   119  109  118 1   
   120  109  119 1   
   121  109  120 1   
   122  121  122 1   
   123  121  127 1   
   124  122  123 1   
   125  122  125 1   
   126  122  128 1   
   127  123  124 2   
   128  123  132 1   
   129  125  126 1   
   130  125  129 1   
   131  125  130 1   
   132  126  131 1   
   133  132  133 1   
   134  132  137 1   
   135  133  134 1   
   136  133  136 1   
   137  133  138 1   
   138  134  135 2   
   139  134  142 1   
   140  136  139 1   
   141  136  140 1   
   142  136  141 1   
   143  142  143 1   
   144  142  147 1   
   145  143  144 1   
   146  143  146 1   
   147  143  148 1   
   148  144  145 2   
   149  144  152 1   
   150  146  149 1   
   151  146  150 1   
   152  146  151 1   
   153  152  153 1   
   154  152  161 1   
   155  153  154 1   
   156  153  156 1   
   157  153  162 1   
   158  154  155 2   
   159  154  167 1   
   160  156  157 1   
   161  156  163 1   
   162  156  164 1   
   163  157  158 1   
   164  157  165 1   
   165  157  166 1   
   166  158  159 1   
   167  158  160 1   
   168  167  168 1   
   169  167  172 1   
   170  168  169 1   
   171  168  170 1   
   172  168  171 1   
   173  174  175 1   
   174  174  176 1   
   175  177  178 1   
   176  177  179 1   
   177  180  181 1   
   178  180  182 1   
   179  183  184 1   
   180  183  185 1   
   181  186  187 1   
   182  186  188 1   
@<TRIPOS>SUBSTRUCTURE
     1 MOL         1 TEMP              0 ****  ****    0 ROOT
