@<TRIPOS>MOLECULE
MOL
  181   177     1     0     0
SMALL
resp


@<TRIPOS>ATOM
      1 C1          1.9150   -3.1150    3.8670 c3        1 MOL     -0.291903
      2 C2          2.8900   -1.9970    3.6130 c         1 MOL      0.680544
      3 O1          2.7840   -1.4230    2.5790 o         1 MOL     -0.531938
      4 H1          1.4200   -2.9550    4.8250 hc        1 MOL      0.062022
      5 H2          1.1690   -3.1350    3.0720 hc        1 MOL      0.062022
      6 H3          2.4470   -4.0660    3.8890 hc        1 MOL      0.062022
      7 N1          3.8810   -1.7110    4.4670 n         1 MOL     -0.604566
      8 C3          4.9150   -0.6930    4.2050 c3        1 MOL      0.268208
      9 C4          5.8520   -1.0620    3.0460 c         1 MOL      0.687395
     10 O2          6.1390   -0.2630    2.1530 o         1 MOL     -0.587566
     11 C5          5.6840   -0.5620    5.5060 c3        1 MOL     -0.118256
     12 C6          6.6870    0.5450    5.4610 c         1 MOL      0.734246
     13 O3          6.3050    1.7020    5.1640 o         1 MOL     -0.735261
     14 O4          7.8760    0.2730    5.7340 o         1 MOL     -0.735261
     15 H4          3.9450   -2.2910    5.2920 hn        1 MOL      0.277032
     16 H5          4.5120    0.2870    3.9480 h1        1 MOL      0.006745
     17 H6          6.2270   -1.4870    5.7350 hc        1 MOL     -0.034189
     18 H7          4.9190   -0.3820    6.2620 hc        1 MOL     -0.034189
     19 N2          6.2920   -2.3150    3.0180 n         1 MOL     -0.798954
     20 C7          7.1690   -2.9330    2.1100 c3        1 MOL      0.827921
     21 C8          6.8840   -2.7590    0.5580 c         1 MOL      0.100726
     22 O5          7.8650   -2.6770   -0.2190 o         1 MOL     -0.458679
     23 C9          8.5170   -2.7260    2.6880 c3        1 MOL     -0.563950
     24 H8          6.1340   -2.8600    3.8580 hn        1 MOL      0.298696
     25 H9          6.9640   -3.9790    2.3400 h1        1 MOL     -0.109423
     26 H10         8.5250   -2.8240    3.7750 hc        1 MOL      0.124962
     27 H11         9.0670   -3.5250    2.1880 hc        1 MOL      0.124962
     28 H12         8.8700   -1.7350    2.3890 hc        1 MOL      0.124962
     29 N3          5.5720   -2.8050    0.2340 n         1 MOL     -0.415175
     30 C10         5.0910   -2.5480   -1.0940 c3        1 MOL      0.547800
     31 C11         5.6140   -1.2560   -1.6940 c         1 MOL      0.163249
     32 O6          6.1970   -1.2570   -2.8210 o         1 MOL     -0.460756
     33 C12         5.2410   -3.7460   -1.9960 c3        1 MOL     -0.279194
     34 C13         4.3860   -3.6720   -3.2970 c         1 MOL      0.673470
     35 O7          3.3990   -2.9010   -3.2650 o         1 MOL     -0.694701
     36 O8          4.7720   -4.4390   -4.1880 o         1 MOL     -0.694701
     37 H13         4.8830   -2.9750    0.9440 hn        1 MOL      0.272873
     38 H14         4.0260   -2.4020   -0.9260 h1        1 MOL     -0.102385
     39 H15         4.8680   -4.6230   -1.4490 hc        1 MOL      0.048965
     40 H16         6.2990   -3.8820   -2.2230 hc        1 MOL      0.048965
     41 N4          5.5320   -0.1400   -0.9120 n         1 MOL      0.113979
     42 C14         6.1670    1.2040   -1.2790 c3        1 MOL     -0.232361
     43 C15         5.2710    2.0390   -2.1560 c         1 MOL      0.639792
     44 O9          5.7080    3.0450   -2.6510 o         1 MOL     -0.586992
     45 H17         5.0960   -0.2160   -0.0160 hn        1 MOL      0.115593
     46 H18         7.1350    1.1040   -1.7790 h1        1 MOL      0.116956
     47 H19         6.2350    1.8510   -0.4140 h1        1 MOL      0.116956
     48 N5          3.9740    1.7150   -2.3480 n         1 MOL     -0.351102
     49 C16         3.0290    2.5580   -3.0160 c3        1 MOL      0.041013
     50 C17         2.9510    3.9430   -2.3350 c         1 MOL      0.615101
     51 O10         3.0400    4.0340   -1.1120 o         1 MOL     -0.549481
     52 C18         1.5980    1.9150   -2.9130 c3        1 MOL     -0.524862
     53 C19         1.5180    0.5880   -3.7250 c         1 MOL      0.725181
     54 N6          1.4460    0.6240   -5.0020 n         1 MOL     -0.696986
     55 O11         1.7130   -0.4960   -3.1240 o         1 MOL     -0.590914
     56 H20         3.6160    0.9890   -1.7370 hn        1 MOL      0.206732
     57 H21         3.3540    2.7280   -4.0410 h1        1 MOL      0.032321
     58 H22         0.7900    2.5200   -3.3070 hc        1 MOL      0.172415
     59 H23         1.3740    1.6790   -1.8800 hc        1 MOL      0.172415
     60 H24         1.2840    1.5100   -5.4630 hn        1 MOL      0.335830
     61 H25         1.6830   -0.2610   -5.4310 hn        1 MOL      0.335830
     62 N7          2.7760    5.0110   -3.0850 n         1 MOL     -0.402645
     63 C20         2.6330    6.4060   -2.5530 c3        1 MOL     -0.174486
     64 C21         1.1570    6.7390   -2.4460 c         1 MOL      0.567702
     65 O12         0.3770    6.7420   -3.3960 o         1 MOL     -0.508389
     66 H26         2.5920    4.8740   -4.0630 hn        1 MOL      0.269372
     67 H27         2.9860    7.1340   -3.2750 h1        1 MOL      0.125177
     68 H28         3.1290    6.5950   -1.6110 h1        1 MOL      0.125177
     69 N8          0.6820    7.2030   -1.2040 n         1 MOL     -0.566824
     70 C22        -0.6970    7.5420   -0.8630 c3        1 MOL      0.043506
     71 C23        -1.4590    6.3630   -0.3280 c         1 MOL      0.669115
     72 O13        -2.6620    6.1820   -0.6080 o         1 MOL     -0.600415
     73 C24        -0.8040    8.5960    0.2690 c3        1 MOL      0.269420
     74 C25        -2.2110    9.0010    0.7540 c3        1 MOL     -0.486910
     75 O14        -0.1280    8.1610    1.4310 oh        1 MOL     -0.595005
     76 H29         1.4200    7.3190   -0.5190 hn        1 MOL      0.290750
     77 H30        -1.1990    7.8730   -1.7700 h1        1 MOL      0.087819
     78 H31        -0.2740    9.4720   -0.0880 h1        1 MOL      0.016233
     79 H32        -0.0590    8.9480    1.9840 ho        1 MOL      0.395184
     80 H33        -2.0680    9.7050    1.5820 hc        1 MOL      0.131434
     81 H34        -2.8790    9.3920   -0.0100 hc        1 MOL      0.131434
     82 H35        -2.6520    8.1280    1.2240 hc        1 MOL      0.131434
     83 N9         -0.8420    5.4870    0.5110 n         1 MOL     -0.341032
     84 C26        -1.4120    4.2660    1.0690 c3        1 MOL     -0.269201
     85 C27        -1.2590    3.0580    0.1350 c         1 MOL      0.543872
     86 O15        -0.5740    3.0600   -0.8840 o         1 MOL     -0.485792
     87 C28        -0.8660    4.0450    2.5290 c3        1 MOL      0.347068
     88 C29         0.6740    3.7140    2.5890 c3        1 MOL     -0.357046
     89 C30        -1.2930    5.1890    3.3980 c3        1 MOL     -0.320583
     90 C31         1.2460    3.3770    3.9360 c3        1 MOL     -0.200314
     91 H36         0.0450    5.8200    0.8780 hn        1 MOL      0.240194
     92 H37        -2.4860    4.4650    1.1760 h1        1 MOL      0.103810
     93 H38        -1.3900    3.1590    2.9000 hc        1 MOL     -0.035282
     94 H39         1.1530    4.6100    2.1990 hc        1 MOL      0.178290
     95 H40         0.7760    2.8060    1.9820 hc        1 MOL      0.178290
     96 H41        -0.9700    4.9830    4.4170 hc        1 MOL      0.068843
     97 H42        -0.7620    6.0680    3.0280 hc        1 MOL      0.068843
     98 H43        -2.3430    5.4270    3.3120 hc        1 MOL      0.068843
     99 H44         2.1490    2.7690    3.8870 hc        1 MOL      0.073040
    100 H45         1.3280    4.2320    4.6050 hc        1 MOL      0.073040
    101 H46         0.5850    2.6760    4.4470 hc        1 MOL      0.073040
    102 N10        -1.9030    1.9910    0.4830 n         1 MOL     -0.386622
    103 C32        -2.0340    0.7230   -0.2640 c3        1 MOL      0.180300
    104 C33        -3.4030    0.0470   -0.2180 c         1 MOL      0.523955
    105 O16        -3.5160   -1.2140   -0.2050 o         1 MOL     -0.505176
    106 C34        -0.8160   -0.2030    0.1270 c3        1 MOL     -0.243131
    107 C35        -0.2790   -1.1050   -0.9640 c         1 MOL      0.831794
    108 O17         0.7150   -1.8540   -0.7000 o         1 MOL     -0.736025
    109 O18        -0.8530   -1.0990   -2.1070 o         1 MOL     -0.736025
    110 H47        -2.4770    2.0040    1.3180 hn        1 MOL      0.202605
    111 H48        -1.8120    1.0620   -1.2790 h1        1 MOL      0.012420
    112 H49        -1.1320   -0.8650    0.9470 hc        1 MOL      0.063101
    113 H50        -0.0110    0.4120    0.5220 hc        1 MOL      0.063101
    114 N11        -4.4140    0.9220   -0.3640 n         1 MOL     -0.486277
    115 C36        -5.8410    0.4780   -0.4840 c3        1 MOL      0.223477
    116 C37        -6.2260   -0.6190    0.5230 c         1 MOL      0.349445
    117 O19        -6.0460   -0.4240    1.7080 o         1 MOL     -0.502206
    118 C38        -6.8230    1.6180   -0.4900 c3        1 MOL     -0.324373
    119 C39        -8.2540    1.0900   -0.5210 ca        1 MOL      0.030716
    120 C40        -8.8920    0.6320   -1.7050 ca        1 MOL     -0.113745
    121 C41        -8.9770    0.9730    0.6920 ca        1 MOL     -0.113745
    122 C42       -10.1400   -0.0730   -1.6370 ca        1 MOL     -0.151329
    123 C43       -10.1290    0.2080    0.7910 ca        1 MOL     -0.151329
    124 C44       -10.6790   -0.3930   -0.3850 ca        1 MOL     -0.086916
    125 H51        -4.1380    1.8780   -0.5300 hn        1 MOL      0.288566
    126 H52        -5.7200    0.0530   -1.4810 h1        1 MOL     -0.011899
    127 H53        -6.5130    2.2430   -1.3270 hc        1 MOL      0.134007
    128 H54        -6.5530    2.1130    0.4460 hc        1 MOL      0.134007
    129 H55        -8.4170    0.6650   -2.6790 ha        1 MOL      0.112474
    130 H56        -8.5080    1.3920    1.5700 ha        1 MOL      0.112474
    131 H57       -10.5050   -0.5250   -2.5420 ha        1 MOL      0.126905
    132 H58       -10.6150    0.0710    1.7510 ha        1 MOL      0.126905
    133 H59       -11.5860   -0.9690   -0.3130 ha        1 MOL      0.096791
    134 N12        -6.7450   -1.7690    0.0500 n         1 MOL      0.127995
    135 C45        -7.3070   -2.7430    0.9310 c3        1 MOL     -0.014947
    136 C46        -6.3250   -3.3980    1.9580 c         1 MOL      0.364935
    137 O20        -6.7230   -3.8490    3.0240 o         1 MOL     -0.503151
    138 C47        -8.0490   -3.6760   -0.0590 c3        1 MOL     -0.086481
    139 C48        -7.1710   -3.6970   -1.3470 c3        1 MOL     -0.114565
    140 C49        -6.6950   -2.2680   -1.3350 c3        1 MOL      0.115157
    141 H60        -8.1370   -2.4020    1.5610 h1        1 MOL      0.050785
    142 H61        -8.1890   -4.6340    0.4410 hc        1 MOL      0.034790
    143 H62        -9.0340   -3.2540   -0.2500 hc        1 MOL      0.034790
    144 H63        -6.3380   -4.3930   -1.2230 hc        1 MOL      0.039395
    145 H64        -7.7710   -3.7340   -2.2610 hc        1 MOL      0.039395
    146 H65        -5.6790   -2.1550   -1.7060 h1        1 MOL     -0.010720
    147 H66        -7.4780   -1.7620   -1.9050 h1        1 MOL     -0.010720
    148 N13        -5.0170   -3.3980    1.6760 n         1 MOL     -0.172056
    149 C50        -3.8980   -3.7070    2.5330 c3        1 MOL     -0.362415
    150 C51        -3.6410   -2.8220    3.7600 c         1 MOL      0.415338
    151 O21        -3.4120   -3.2630    4.9010 o         1 MOL     -0.504853
    152 C52        -2.5870   -3.8700    1.7220 c3        1 MOL     -0.020586
    153 C53        -2.6600   -4.7910    0.5410 c3        1 MOL     -0.189840
    154 C54        -1.2810   -4.7040   -0.1270 c         1 MOL      0.617425
    155 O22        -1.1500   -4.1280   -1.2750 o         1 MOL     -0.692115
    156 O23        -0.2440   -5.1960    0.4540 o         1 MOL     -0.692115
    157 H67        -4.8270   -2.8760    0.8210 hn        1 MOL      0.227176
    158 H68        -4.2030   -4.7050    2.8620 h1        1 MOL      0.190643
    159 H69        -1.8380   -4.2700    2.4030 hc        1 MOL      0.106604
    160 H70        -2.1950   -2.9080    1.3860 hc        1 MOL      0.106604
    161 H71        -3.3960   -4.4930   -0.2070 hc        1 MOL      0.045654
    162 H72        -2.7990   -5.8280    0.8670 hc        1 MOL      0.045654
    163 N14        -4.0630   -1.5230    3.6180 n         1 MOL     -0.009845
    164 C55        -3.9860   -0.4470    4.5580 c3        1 MOL     -0.329725
    165 H73        -3.7560    0.4790    4.0310 h1        1 MOL      0.109474
    166 H74        -4.9410   -0.3440    5.0740 h1        1 MOL      0.109474
    167 H75        -3.2000   -0.6550    5.2850 h1        1 MOL      0.109474
    168 H76        -4.3640   -1.2210    2.7020 hn        1 MOL      0.119119
    169 Ca1         0.8600   -3.1490   -2.9230 Ca        1 MOL      1.726738
    170 O24         1.2160   -5.6060   -1.8150 oh        1 MOL     -0.825092
    171 H77         1.8830   -6.2670   -1.6300 ho        1 MOL      0.391559
    172 H78         0.6480   -5.6120   -1.0430 ho        1 MOL      0.391559
    173 O25        -0.6000   -4.9440   -4.3850 oh        1 MOL     -0.825092
    174 H79        -0.0690   -5.5530   -4.8920 ho        1 MOL      0.391559
    175 H80        -1.4980   -5.0970   -4.6780 ho        1 MOL      0.391559
    176 O26         2.1630   -4.5790   -4.9920 oh        1 MOL     -0.825092
    177 H81         3.0320   -4.5100   -4.6000 ho        1 MOL      0.391559
    178 H82         2.1560   -5.4390   -5.4050 ho        1 MOL      0.391559
    179 O27        -0.1640   -2.2150   -5.1810 oh        1 MOL     -0.825092
    180 H83        -0.6190   -1.3770   -5.3200 ho        1 MOL      0.391559
    181 H84        -0.2840   -2.6960   -5.9980 ho        1 MOL      0.391559
@<TRIPOS>BOND
     1    1    2 1   
     2    1    4 1   
     3    1    5 1   
     4    1    6 1   
     5    2    3 2   
     6    2    7 1   
     7    7    8 1   
     8    7   15 1   
     9    8    9 1   
    10    8   11 1   
    11    8   16 1   
    12    9   10 2   
    13    9   19 1   
    14   11   12 1   
    15   11   17 1   
    16   11   18 1   
    17   12   13 1   
    18   12   14 1   
    19   19   20 1   
    20   19   24 1   
    21   20   21 1   
    22   20   23 1   
    23   20   25 1   
    24   21   22 2   
    25   21   29 1   
    26   23   26 1   
    27   23   27 1   
    28   23   28 1   
    29   29   30 1   
    30   29   37 1   
    31   30   31 1   
    32   30   33 1   
    33   30   38 1   
    34   31   32 2   
    35   31   41 1   
    36   33   34 1   
    37   33   39 1   
    38   33   40 1   
    39   34   35 1   
    40   34   36 1   
    41   41   42 1   
    42   41   45 1   
    43   42   43 1   
    44   42   46 1   
    45   42   47 1   
    46   43   44 2   
    47   43   48 1   
    48   48   49 1   
    49   48   56 1   
    50   49   50 1   
    51   49   52 1   
    52   49   57 1   
    53   50   51 2   
    54   50   62 1   
    55   52   53 1   
    56   52   58 1   
    57   52   59 1   
    58   53   54 1   
    59   53   55 2   
    60   54   60 1   
    61   54   61 1   
    62   62   63 1   
    63   62   66 1   
    64   63   64 1   
    65   63   67 1   
    66   63   68 1   
    67   64   65 2   
    68   64   69 1   
    69   69   70 1   
    70   69   76 1   
    71   70   71 1   
    72   70   73 1   
    73   70   77 1   
    74   71   72 2   
    75   71   83 1   
    76   73   74 1   
    77   73   75 1   
    78   73   78 1   
    79   74   80 1   
    80   74   81 1   
    81   74   82 1   
    82   75   79 1   
    83   83   84 1   
    84   83   91 1   
    85   84   85 1   
    86   84   87 1   
    87   84   92 1   
    88   85   86 2   
    89   85  102 1   
    90   87   88 1   
    91   87   89 1   
    92   87   93 1   
    93   88   90 1   
    94   88   94 1   
    95   88   95 1   
    96   89   96 1   
    97   89   97 1   
    98   89   98 1   
    99   90   99 1   
   100   90  100 1   
   101   90  101 1   
   102  102  103 1   
   103  102  110 1   
   104  103  104 1   
   105  103  106 1   
   106  103  111 1   
   107  104  105 2   
   108  104  114 1   
   109  106  107 1   
   110  106  112 1   
   111  106  113 1   
   112  107  108 1   
   113  107  109 1   
   114  114  115 1   
   115  114  125 1   
   116  115  116 1   
   117  115  118 1   
   118  115  126 1   
   119  116  117 2   
   120  116  134 1   
   121  118  119 1   
   122  118  127 1   
   123  118  128 1   
   124  119  120 ar  
   125  119  121 ar  
   126  120  122 ar  
   127  120  129 1   
   128  121  123 ar  
   129  121  130 1   
   130  122  124 ar  
   131  122  131 1   
   132  123  124 ar  
   133  123  132 1   
   134  124  133 1   
   135  134  135 1   
   136  134  140 1   
   137  135  136 1   
   138  135  138 1   
   139  135  141 1   
   140  136  137 2   
   141  136  148 1   
   142  138  139 1   
   143  138  142 1   
   144  138  143 1   
   145  139  140 1   
   146  139  144 1   
   147  139  145 1   
   148  140  146 1   
   149  140  147 1   
   150  148  149 1   
   151  148  157 1   
   152  149  150 1   
   153  149  152 1   
   154  149  158 1   
   155  150  151 2   
   156  150  163 1   
   157  152  153 1   
   158  152  159 1   
   159  152  160 1   
   160  153  154 1   
   161  153  161 1   
   162  153  162 1   
   163  154  155 1   
   164  154  156 1   
   165  163  164 1   
   166  163  168 1   
   167  164  165 1   
   168  164  166 1   
   169  164  167 1   
   170  170  171 1   
   171  170  172 1   
   172  173  174 1   
   173  173  175 1   
   174  176  177 1   
   175  176  178 1   
   176  179  180 1   
   177  179  181 1   
@<TRIPOS>SUBSTRUCTURE
     1 MOL         1 TEMP              0 ****  ****    0 ROOT
