@<TRIPOS>MOLECULE
MOL
  181   177     1     0     0
SMALL
resp


@<TRIPOS>ATOM
      1 C1          1.2020   -5.9180    3.6210 c3        1 MOL     -0.331863
      2 C2          2.5930   -6.0410    3.0040 c         1 MOL      0.678036
      3 O1          2.8000   -6.9010    2.1200 o         1 MOL     -0.603211
      4 H1          1.2910   -5.8560    4.7060 hc        1 MOL      0.078086
      5 H2          0.7150   -5.0190    3.2450 hc        1 MOL      0.078086
      6 H3          0.6070   -6.7930    3.3550 hc        1 MOL      0.078086
      7 N1          3.4910   -5.2010    3.3600 n         1 MOL     -0.535227
      8 C3          4.7810   -5.0650    2.7040 c3        1 MOL      0.185257
      9 C4          4.5360   -4.4190    1.2970 c         1 MOL      0.700521
     10 O2          4.0090   -3.2850    1.2310 o         1 MOL     -0.579031
     11 C5          5.7300   -4.1920    3.5530 c3        1 MOL     -0.313159
     12 C6          7.1620   -4.2480    3.0560 c         1 MOL      0.728094
     13 O3          7.7520   -5.2460    2.5900 o         1 MOL     -0.728562
     14 O4          7.7960   -3.1550    3.1810 o         1 MOL     -0.728562
     15 H4          3.2980   -4.5020    4.0720 hn        1 MOL      0.293185
     16 H5          5.2060   -6.0520    2.5010 h1        1 MOL     -0.001006
     17 H6          5.6900   -4.5230    4.5870 hc        1 MOL      0.064073
     18 H7          5.3720   -3.1670    3.4540 hc        1 MOL      0.064073
     19 N2          4.7920   -5.1620    0.2080 n         1 MOL     -0.756084
     20 C7          4.7490   -4.7880   -1.1410 c3        1 MOL      0.551433
     21 C8          3.3600   -4.6650   -1.7020 c         1 MOL      0.489932
     22 O5          2.4760   -5.4690   -1.3780 o         1 MOL     -0.578381
     23 C9          5.5990   -5.8290   -2.0080 c3        1 MOL     -0.473035
     24 H8          4.9260   -6.1480    0.4110 hn        1 MOL      0.354783
     25 H9          5.2780   -3.8450   -1.2660 h1        1 MOL      0.015537
     26 H10         6.6020   -5.8470   -1.5580 hc        1 MOL      0.118660
     27 H11         5.2070   -6.8410   -1.8950 hc        1 MOL      0.118660
     28 H12         5.6390   -5.4880   -3.0390 hc        1 MOL      0.118660
     29 N3          3.1280   -3.8260   -2.6870 n         1 MOL     -0.583426
     30 C10         4.0100   -2.8080   -3.2140 c3        1 MOL      0.266890
     31 C11         4.1540   -1.4690   -2.3880 c         1 MOL      0.177791
     32 O6          3.3920   -1.1760   -1.4460 o         1 MOL     -0.384293
     33 C12         3.7180   -2.4130   -4.6770 c3        1 MOL     -0.267754
     34 C13         2.3400   -1.8600   -4.8500 c         1 MOL      0.647824
     35 O7          1.8570   -1.1160   -3.9550 o         1 MOL     -0.649673
     36 O8          1.7630   -1.9800   -5.9950 o         1 MOL     -0.649673
     37 H13         2.1890   -3.8980   -3.0550 hn        1 MOL      0.344982
     38 H14         5.0200   -3.1940   -3.2760 h1        1 MOL      0.029132
     39 H15         3.8710   -3.3050   -5.2870 hc        1 MOL      0.062526
     40 H16         4.4940   -1.7770   -5.0800 hc        1 MOL      0.062526
     41 N4          5.3070   -0.7390   -2.4530 n         1 MOL     -0.381736
     42 C14         5.6860    0.5110   -1.7460 c3        1 MOL      0.150948
     43 C15         7.0430    0.5150   -0.9250 c         1 MOL      0.656570
     44 O9          7.8050   -0.4260   -1.1260 o         1 MOL     -0.550439
     45 H17         6.0870   -1.1270   -2.9590 hn        1 MOL      0.244022
     46 H18         4.8390    0.8460   -1.1480 h1        1 MOL      0.021391
     47 H19         5.9370    1.2340   -2.5310 h1        1 MOL      0.021391
     48 N5          7.3870    1.5860   -0.1650 n         1 MOL     -0.636465
     49 C16         6.6850    2.9020   -0.0510 c3        1 MOL      0.065512
     50 C17         6.2140    3.2960    1.4130 c         1 MOL      0.594694
     51 O10         6.8890    2.9860    2.3930 o         1 MOL     -0.530320
     52 C18         7.6820    3.9110   -0.6540 c3        1 MOL     -0.361374
     53 C19         7.1420    5.3200   -0.7290 c         1 MOL      0.685837
     54 N6          7.9260    6.3240   -0.9250 n         1 MOL     -0.787348
     55 O11         5.9190    5.5860   -0.7790 o         1 MOL     -0.548918
     56 H20         8.2070    1.5420    0.4270 hn        1 MOL      0.373664
     57 H21         5.7440    2.9060   -0.6120 h1        1 MOL      0.080210
     58 H22         7.9700    3.6110   -1.6620 hc        1 MOL      0.113426
     59 H23         8.5740    3.8510   -0.0260 hc        1 MOL      0.113426
     60 H24         8.8670    6.1910   -1.2700 hn        1 MOL      0.364814
     61 H25         7.5010    7.2300   -0.7670 hn        1 MOL      0.364814
     62 N7          5.0140    3.8330    1.4690 n         1 MOL     -0.324414
     63 C20         4.4020    4.1780    2.7790 c3        1 MOL     -0.302812
     64 C21         3.0010    4.8270    2.7150 c         1 MOL      0.649019
     65 O12         2.4830    5.1450    3.7620 o         1 MOL     -0.553733
     66 H26         4.5300    4.0990    0.6280 hn        1 MOL      0.219507
     67 H27         5.0310    4.9560    3.2040 h1        1 MOL      0.143524
     68 H28         4.4190    3.3190    3.4520 h1        1 MOL      0.143524
     69 N8          2.4940    5.0250    1.4950 n         1 MOL     -0.415815
     70 C22         1.1410    5.5830    1.3730 c3        1 MOL     -0.019164
     71 C23         0.0970    4.4840    0.9810 c         1 MOL      0.443513
     72 O13         0.4920    3.3870    0.5490 o         1 MOL     -0.468010
     73 C24         1.1840    6.7080    0.3310 c3        1 MOL      0.292158
     74 C25         2.0050    7.9610    0.7580 c3        1 MOL     -0.199680
     75 O14         1.9070    6.4040   -0.8550 oh        1 MOL     -0.591321
     76 H29         2.9440    4.7520    0.6410 hn        1 MOL      0.321128
     77 H30         0.7320    5.9410    2.3230 h1        1 MOL      0.066442
     78 H31         0.1700    7.0150    0.0830 h1        1 MOL     -0.001241
     79 H32         1.2940    5.8360   -1.3320 ho        1 MOL      0.406432
     80 H33         1.5490    8.5140    1.5820 hc        1 MOL      0.050144
     81 H34         3.0470    7.7590    0.9990 hc        1 MOL      0.050144
     82 H35         1.9680    8.7270   -0.0220 hc        1 MOL      0.050144
     83 N9         -1.1960    4.7990    1.1100 n         1 MOL     -0.238587
     84 C26        -2.2990    3.9240    0.7920 c3        1 MOL     -0.348739
     85 C27        -2.7220    3.8850   -0.6480 c         1 MOL      0.605264
     86 O15        -2.6650    4.9850   -1.2710 o         1 MOL     -0.596735
     87 C28        -3.4330    4.2610    1.7590 c3        1 MOL      0.087992
     88 C29        -4.7540    3.4670    1.5060 c3        1 MOL      0.051054
     89 C30        -2.9900    3.7370    3.1540 c3        1 MOL     -0.141698
     90 C31        -6.0240    3.6390    2.3960 c3        1 MOL     -0.138261
     91 H36        -1.3680    5.7560    1.3870 hn        1 MOL      0.240950
     92 H37        -2.0270    2.8880    0.9880 h1        1 MOL      0.281176
     93 H38        -3.6830    5.3140    1.8610 hc        1 MOL      0.030185
     94 H39        -4.4890    2.4680    1.1680 hc        1 MOL     -0.010521
     95 H40        -5.1050    3.8390    0.5480 hc        1 MOL     -0.010521
     96 H41        -2.0780    4.2270    3.4900 hc        1 MOL      0.018171
     97 H42        -3.7880    3.9060    3.8860 hc        1 MOL      0.018171
     98 H43        -2.7980    2.6580    3.1580 hc        1 MOL      0.018171
     99 H44        -6.2980    4.6940    2.4630 hc        1 MOL      0.025008
    100 H45        -6.8870    3.1210    1.9610 hc        1 MOL      0.025008
    101 H46        -5.8870    3.1390    3.3500 hc        1 MOL      0.025008
    102 N10        -3.1180    2.7350   -1.1860 n         1 MOL     -0.376414
    103 C32        -3.7120    2.5250   -2.4890 c3        1 MOL     -0.114641
    104 C33        -4.7980    1.3960   -2.5420 c         1 MOL      0.494396
    105 O16        -5.3480    1.0440   -3.6150 o         1 MOL     -0.540291
    106 C34        -2.5730    2.3000   -3.4830 c3        1 MOL      0.064220
    107 C35        -1.4800    1.3600   -2.8980 c         1 MOL      0.496487
    108 O17        -1.6130    0.1300   -3.0450 o         1 MOL     -0.653761
    109 O18        -0.4140    1.8310   -2.4650 o         1 MOL     -0.653761
    110 H47        -2.9340    1.9220   -0.6110 hn        1 MOL      0.398915
    111 H48        -4.2210    3.4300   -2.8210 h1        1 MOL      0.095038
    112 H49        -2.0320    3.2220   -3.7260 hc        1 MOL      0.009074
    113 H50        -2.9860    2.0040   -4.4600 hc        1 MOL      0.009074
    114 N11        -5.1910    0.8290   -1.3870 n         1 MOL     -0.416657
    115 C36        -6.3160   -0.1090   -1.2580 c3        1 MOL      0.418525
    116 C37        -6.2690   -1.2170   -0.1570 c         1 MOL      0.289698
    117 O19        -6.8740   -1.1370    0.8700 o         1 MOL     -0.460033
    118 C38        -7.5640    0.7300   -1.2240 c3        1 MOL     -0.489245
    119 C39        -8.7750   -0.0990   -1.4930 ca        1 MOL      0.318396
    120 C40        -9.5920   -0.3110   -0.4060 ca        1 MOL     -0.262759
    121 C41        -9.0840   -0.6490   -2.8140 ca        1 MOL     -0.262759
    122 C42       -10.7940   -1.1150   -0.5800 ca        1 MOL     -0.103963
    123 C43       -10.2870   -1.2570   -3.0570 ca        1 MOL     -0.103963
    124 C44       -11.0940   -1.4870   -1.9090 ca        1 MOL     -0.142451
    125 H51        -4.6450    1.0430   -0.5670 hn        1 MOL      0.209332
    126 H52        -6.4270   -0.6370   -2.1990 h1        1 MOL     -0.026924
    127 H53        -7.5040    1.4220   -2.0670 hc        1 MOL      0.132325
    128 H54        -7.6740    1.1530   -0.2200 hc        1 MOL      0.132325
    129 H55        -9.2010   -0.1650    0.5880 ha        1 MOL      0.165633
    130 H56        -8.4110   -0.6290   -3.6610 ha        1 MOL      0.165633
    131 H57       -11.4380   -1.3550    0.2610 ha        1 MOL      0.114578
    132 H58       -10.4710   -1.6030   -4.0670 ha        1 MOL      0.114578
    133 H59       -12.0750   -1.9520   -1.9460 ha        1 MOL      0.074491
    134 N12        -5.4310   -2.2320   -0.4120 n         1 MOL     -0.172863
    135 C45        -5.4090   -3.4360    0.4120 c3        1 MOL      0.065776
    136 C46        -4.8250   -3.1510    1.8190 c         1 MOL      0.303635
    137 O20        -4.9630   -3.9000    2.7010 o         1 MOL     -0.472443
    138 C47        -4.4260   -4.3830   -0.2730 c3        1 MOL     -0.234253
    139 C48        -3.5310   -3.4240   -1.0760 c3        1 MOL      0.088053
    140 C49        -4.3500   -2.1960   -1.4310 c3        1 MOL     -0.201324
    141 H60        -6.4140   -3.8340    0.5870 h1        1 MOL      0.082310
    142 H61        -3.7410   -4.8880    0.4000 hc        1 MOL      0.083882
    143 H62        -4.9060   -5.0890   -0.9580 hc        1 MOL      0.083882
    144 H63        -2.7740   -3.1410   -0.3350 hc        1 MOL      0.025406
    145 H64        -3.0520   -3.9970   -1.8700 hc        1 MOL      0.025406
    146 H65        -3.7400   -1.3080   -1.2750 h1        1 MOL      0.121028
    147 H66        -4.7270   -2.3260   -2.4500 h1        1 MOL      0.121028
    148 N13        -4.1330   -1.9810    1.9850 n         1 MOL     -0.103808
    149 C50        -3.8060   -1.4780    3.3940 c3        1 MOL     -0.192045
    150 C51        -4.9950   -1.1220    4.2740 c         1 MOL      0.463839
    151 O21        -5.0410   -1.2950    5.4860 o         1 MOL     -0.546282
    152 C52        -3.0420   -0.2000    3.1980 c3        1 MOL      0.080193
    153 C53        -1.7710   -0.3080    2.3770 c3        1 MOL     -0.399691
    154 C54        -1.9630   -0.1500    0.9150 c         1 MOL      0.295898
    155 O22        -1.0970   -0.4940    0.0860 o         1 MOL     -0.598985
    156 O23        -2.9050    0.5530    0.4600 o         1 MOL     -0.598985
    157 H67        -4.0190   -1.3070    1.2300 hn        1 MOL      0.374374
    158 H68        -3.1080   -2.1440    3.8950 h1        1 MOL      0.125175
    159 H69        -2.7140    0.0870    4.1910 hc        1 MOL      0.024169
    160 H70        -3.7040    0.5420    2.7460 hc        1 MOL      0.024169
    161 H71        -1.3290   -1.2910    2.5210 hc        1 MOL      0.155755
    162 H72        -1.0820    0.4650    2.7320 hc        1 MOL      0.155755
    163 N14        -6.1520   -0.6680    3.6920 n         1 MOL     -0.107342
    164 C55        -7.4050   -0.4770    4.3950 c3        1 MOL     -0.287225
    165 H73        -7.2390   -0.5840    5.4680 h1        1 MOL      0.104491
    166 H74        -7.7910    0.5210    4.1850 h1        1 MOL      0.104491
    167 H75        -8.1260   -1.2240    4.0640 h1        1 MOL      0.104491
    168 H76        -6.1630   -0.6200    2.6750 hn        1 MOL      0.138897
    169 Ca1         0.7300   -0.5820   -1.6980 Ca        1 MOL      1.704542
    170 O24         2.3900    1.2850   -2.7900 oh        1 MOL     -0.811807
    171 H77         3.1240    1.8120   -3.0900 ho        1 MOL      0.389017
    172 H78         2.1350    0.7720   -3.5570 ho        1 MOL      0.389017
    173 O25         1.4620   -2.7070   -0.3070 oh        1 MOL     -0.811807
    174 H79         2.3190   -2.9890    0.0090 ho        1 MOL      0.389017
    175 H80         0.9250   -3.5120   -0.2960 ho        1 MOL      0.389017
    176 O26         1.3420    0.9630    0.3700 oh        1 MOL     -0.811807
    177 H81         0.8030    1.6910    0.6740 ho        1 MOL      0.389017
    178 H82         1.7080    0.5750    1.1600 ho        1 MOL      0.389017
    179 O27        -0.0980   -2.8460   -2.9900 oh        1 MOL     -0.811807
    180 H83        -0.2100   -3.6110   -2.4300 ho        1 MOL      0.389017
    181 H84        -0.3330   -3.1540   -3.8610 ho        1 MOL      0.389017
@<TRIPOS>BOND
     1    1    2 1   
     2    1    4 1   
     3    1    5 1   
     4    1    6 1   
     5    2    3 2   
     6    2    7 1   
     7    7    8 1   
     8    7   15 1   
     9    8    9 1   
    10    8   11 1   
    11    8   16 1   
    12    9   10 2   
    13    9   19 1   
    14   11   12 1   
    15   11   17 1   
    16   11   18 1   
    17   12   13 1   
    18   12   14 1   
    19   19   20 1   
    20   19   24 1   
    21   20   21 1   
    22   20   23 1   
    23   20   25 1   
    24   21   22 2   
    25   21   29 1   
    26   23   26 1   
    27   23   27 1   
    28   23   28 1   
    29   29   30 1   
    30   29   37 1   
    31   30   31 1   
    32   30   33 1   
    33   30   38 1   
    34   31   32 2   
    35   31   41 1   
    36   33   34 1   
    37   33   39 1   
    38   33   40 1   
    39   34   35 1   
    40   34   36 1   
    41   41   42 1   
    42   41   45 1   
    43   42   43 1   
    44   42   46 1   
    45   42   47 1   
    46   43   44 2   
    47   43   48 1   
    48   48   49 1   
    49   48   56 1   
    50   49   50 1   
    51   49   52 1   
    52   49   57 1   
    53   50   51 2   
    54   50   62 1   
    55   52   53 1   
    56   52   58 1   
    57   52   59 1   
    58   53   54 1   
    59   53   55 2   
    60   54   60 1   
    61   54   61 1   
    62   62   63 1   
    63   62   66 1   
    64   63   64 1   
    65   63   67 1   
    66   63   68 1   
    67   64   65 2   
    68   64   69 1   
    69   69   70 1   
    70   69   76 1   
    71   70   71 1   
    72   70   73 1   
    73   70   77 1   
    74   71   72 2   
    75   71   83 1   
    76   73   74 1   
    77   73   75 1   
    78   73   78 1   
    79   74   80 1   
    80   74   81 1   
    81   74   82 1   
    82   75   79 1   
    83   83   84 1   
    84   83   91 1   
    85   84   85 1   
    86   84   87 1   
    87   84   92 1   
    88   85   86 2   
    89   85  102 1   
    90   87   88 1   
    91   87   89 1   
    92   87   93 1   
    93   88   90 1   
    94   88   94 1   
    95   88   95 1   
    96   89   96 1   
    97   89   97 1   
    98   89   98 1   
    99   90   99 1   
   100   90  100 1   
   101   90  101 1   
   102  102  103 1   
   103  102  110 1   
   104  103  104 1   
   105  103  106 1   
   106  103  111 1   
   107  104  105 2   
   108  104  114 1   
   109  106  107 1   
   110  106  112 1   
   111  106  113 1   
   112  107  108 1   
   113  107  109 1   
   114  114  115 1   
   115  114  125 1   
   116  115  116 1   
   117  115  118 1   
   118  115  126 1   
   119  116  117 2   
   120  116  134 1   
   121  118  119 1   
   122  118  127 1   
   123  118  128 1   
   124  119  120 ar  
   125  119  121 ar  
   126  120  122 ar  
   127  120  129 1   
   128  121  123 ar  
   129  121  130 1   
   130  122  124 ar  
   131  122  131 1   
   132  123  124 ar  
   133  123  132 1   
   134  124  133 1   
   135  134  135 1   
   136  134  140 1   
   137  135  136 1   
   138  135  138 1   
   139  135  141 1   
   140  136  137 2   
   141  136  148 1   
   142  138  139 1   
   143  138  142 1   
   144  138  143 1   
   145  139  140 1   
   146  139  144 1   
   147  139  145 1   
   148  140  146 1   
   149  140  147 1   
   150  148  149 1   
   151  148  157 1   
   152  149  150 1   
   153  149  152 1   
   154  149  158 1   
   155  150  151 2   
   156  150  163 1   
   157  152  153 1   
   158  152  159 1   
   159  152  160 1   
   160  153  154 1   
   161  153  161 1   
   162  153  162 1   
   163  154  155 1   
   164  154  156 1   
   165  163  164 1   
   166  163  168 1   
   167  164  165 1   
   168  164  166 1   
   169  164  167 1   
   170  170  171 1   
   171  170  172 1   
   172  173  174 1   
   173  173  175 1   
   174  176  177 1   
   175  176  178 1   
   176  179  180 1   
   177  179  181 1   
@<TRIPOS>SUBSTRUCTURE
     1 MOL         1 TEMP              0 ****  ****    0 ROOT
