@<TRIPOS>MOLECULE
MOL
  192   187     1     0     0
SMALL
resp


@<TRIPOS>ATOM
      1 C1          4.8000    4.6370   -2.8750 c3        1 MOL     -0.304375
      2 C2          5.6260    3.6740   -1.9420 c         1 MOL      0.701919
      3 O1          5.0460    3.1450   -0.9860 o         1 MOL     -0.592697
      4 H1          3.7710    4.6900   -2.5200 hc        1 MOL      0.077089
      5 H2          5.2430    5.6320   -2.8540 hc        1 MOL      0.077089
      6 H3          4.8130    4.2540   -3.8950 hc        1 MOL      0.077089
      7 N1          6.9370    3.4240   -2.1780 n         1 MOL     -0.581436
      8 C3          7.5460    2.2080   -1.7060 c3        1 MOL      0.233495
      9 C4          6.6270    0.9450   -1.5920 c         1 MOL      0.345131
     10 O2          6.0300    0.6690   -0.5270 o         1 MOL     -0.630824
     11 C5          8.4190    2.4860   -0.4880 c3        1 MOL     -0.007782
     12 C6          7.8120    3.4430    0.4770 c         1 MOL      0.648956
     13 O3          6.8950    3.1100    1.2950 o         1 MOL     -0.703866
     14 O4          8.3400    4.5730    0.5260 o         1 MOL     -0.703866
     15 H4          7.3750    3.8910   -2.9600 hn        1 MOL      0.300397
     16 H5          8.2580    2.0060   -2.5140 h1        1 MOL      0.008706
     17 H6          9.3350    2.9600   -0.8280 hc        1 MOL     -0.002326
     18 H7          8.7360    1.5150   -0.0990 hc        1 MOL     -0.002326
     19 N2          6.2380    0.3660   -2.7560 n         1 MOL     -0.507918
     20 C7          5.3930   -0.8100   -2.9510 c3        1 MOL      0.177967
     21 C8          5.8840   -2.1640   -2.2970 c         1 MOL      0.310994
     22 O5          5.5550   -3.2190   -2.8230 o         1 MOL     -0.523467
     23 C9          3.9010   -0.4980   -2.6240 c3        1 MOL      0.320693
     24 C10         2.9160   -1.5930   -2.5240 c3        1 MOL     -0.249451
     25 C11         3.5130    0.6520   -3.6150 c3        1 MOL     -0.170384
     26 C12         2.6670   -2.3840   -3.7540 c3        1 MOL     -0.413788
     27 H8          6.7080    0.8200   -3.5300 hn        1 MOL      0.282816
     28 H9          5.3460   -1.0460   -4.0110 h1        1 MOL      0.024023
     29 H10         3.9680   -0.0260   -1.6410 hc        1 MOL     -0.081575
     30 H11         2.0480   -1.1390   -2.0410 hc        1 MOL      0.148341
     31 H12         3.3150   -2.3590   -1.8520 hc        1 MOL      0.148341
     32 H13         3.6490    0.3650   -4.6650 hc        1 MOL      0.020018
     33 H14         2.4800    0.8600   -3.3260 hc        1 MOL      0.020018
     34 H15         4.0920    1.5450   -3.3990 hc        1 MOL      0.020018
     35 H16         3.5750   -2.7260   -4.2510 hc        1 MOL      0.105561
     36 H17         2.1260   -3.2780   -3.4790 hc        1 MOL      0.105561
     37 H18         1.9450   -1.8700   -4.3850 hc        1 MOL      0.105561
     38 N3          6.6300   -2.1320   -1.1990 n         1 MOL     -0.304635
     39 C13         7.1800   -3.3670   -0.4750 c3        1 MOL      0.252726
     40 C14         6.4290   -4.6590   -0.3330 c         1 MOL      0.525776
     41 O6          7.0330   -5.6910   -0.6170 o         1 MOL     -0.594037
     42 C15         7.8400   -2.9480    0.8890 c3        1 MOL     -0.569959
     43 C16         8.8710   -1.8500    0.6970 c         1 MOL      0.932045
     44 O7          9.5020   -1.4340    1.6960 o         1 MOL     -0.768668
     45 O8          9.2950   -1.5610   -0.4520 o         1 MOL     -0.768668
     46 H19         6.7230   -1.2330   -0.7490 hn        1 MOL      0.338244
     47 H20         8.0360   -3.5920   -1.1150 h1        1 MOL      0.036296
     48 H21         8.3430   -3.8130    1.3350 hc        1 MOL      0.132062
     49 H22         7.1060   -2.6800    1.6460 hc        1 MOL      0.132062
     50 N4          5.1330   -4.8060    0.0170 n         1 MOL     -0.474023
     51 C17         4.2700   -3.7590    0.6430 c3        1 MOL      0.081374
     52 C18         4.4690   -3.6510    2.1860 c         1 MOL      0.531339
     53 O9          5.4200   -4.1500    2.7270 o         1 MOL     -0.536861
     54 H23         4.8150   -5.7590    0.0510 hn        1 MOL      0.293172
     55 H24         3.2610   -4.1480    0.5200 h1        1 MOL      0.018112
     56 H25         4.2740   -2.7730    0.1780 h1        1 MOL      0.018112
     57 N5          3.5770   -3.1060    2.9440 n         1 MOL     -0.378420
     58 C19         2.3630   -2.4430    2.6220 c3        1 MOL     -0.038619
     59 C20         2.5160   -1.1890    1.7010 c         1 MOL      0.236755
     60 O10         3.6740   -0.6890    1.5360 o         1 MOL     -0.318198
     61 C21         1.7400   -2.0410    3.9350 c3        1 MOL     -0.228311
     62 C22         2.5620   -1.2700    4.8790 c         1 MOL      0.781693
     63 O11         2.2700   -0.1010    5.1260 o         1 MOL     -0.691938
     64 O12         3.3950   -1.8340    5.6210 o         1 MOL     -0.691938
     65 H26         3.8220   -2.9400    3.9050 hn        1 MOL      0.238951
     66 H27         1.7430   -3.0500    1.9570 h1        1 MOL      0.075327
     67 H28         1.4560   -2.9630    4.4310 hc        1 MOL      0.049831
     68 H29         0.7720   -1.5450    3.7770 hc        1 MOL      0.049831
     69 N6          1.4610   -0.7440    0.9610 n         1 MOL     -0.044539
     70 C23         0.0200   -1.1690    0.9510 c3        1 MOL     -0.306051
     71 C24        -0.3340   -2.4230    0.2990 c         1 MOL      0.588645
     72 O13         0.3090   -2.9100   -0.6170 o         1 MOL     -0.518542
     73 H30         1.7000   -0.0040    0.3180 hn        1 MOL      0.056268
     74 H31        -0.5310   -0.4110    0.3910 h1        1 MOL      0.130012
     75 H32        -0.4560   -1.1790    1.9340 h1        1 MOL      0.130012
     76 N7         -1.4170   -3.1700    0.6670 n         1 MOL     -0.429770
     77 C25        -1.8260   -4.4320    0.1070 c3        1 MOL     -0.016093
     78 C26        -2.6240   -4.3210   -1.1670 c         1 MOL      0.388067
     79 O14        -2.8920   -5.3890   -1.8100 o         1 MOL     -0.521063
     80 C27        -2.6950   -5.0920    1.1690 c3        1 MOL      0.113827
     81 C28        -4.0850   -4.4440    1.4010 c3        1 MOL     -0.114872
     82 C29        -5.1010   -5.3720    2.0850 c         1 MOL      0.716696
     83 N8         -5.2710   -5.2130    3.4210 n         1 MOL     -0.950747
     84 O15        -5.4870   -6.3150    1.4730 o         1 MOL     -0.514957
     85 H33        -2.0700   -2.8900    1.3900 hn        1 MOL      0.255376
     86 H34        -1.0380   -5.1300   -0.1730 h1        1 MOL      0.130916
     87 H35        -2.1750   -5.0440    2.1260 hc        1 MOL     -0.001596
     88 H36        -2.8310   -6.1440    0.9340 hc        1 MOL     -0.001596
     89 H37        -4.5150   -4.3050    0.4170 hc        1 MOL     -0.025637
     90 H38        -3.9620   -3.4970    1.9310 hc        1 MOL     -0.025637
     91 H39        -4.6400   -4.6070    3.9280 hn        1 MOL      0.402017
     92 H40        -5.6660   -5.9390    4.0130 hn        1 MOL      0.402017
     93 N9         -2.9210   -3.0830   -1.6020 n         1 MOL      0.010621
     94 C30        -3.4860   -2.8910   -2.9520 c3        1 MOL     -0.276627
     95 C31        -4.9600   -2.4960   -3.0190 c         1 MOL      0.560577
     96 O16        -5.5400   -2.6910   -4.0870 o         1 MOL     -0.525729
     97 C32        -2.5270   -1.9260   -3.7190 c3        1 MOL      0.169217
     98 C33        -1.1940   -2.5720   -4.1400 c3        1 MOL     -0.212144
     99 C34        -2.2580   -0.5290   -3.1640 c3        1 MOL     -0.212144
    100 H41        -2.8060   -2.3260   -0.9460 hn        1 MOL      0.126682
    101 H42        -3.4430   -3.8650   -3.4420 h1        1 MOL      0.155565
    102 H43        -3.0140   -1.7200   -4.6740 hc        1 MOL      0.016838
    103 H44        -0.8160   -2.1270   -5.0640 hc        1 MOL      0.050229
    104 H45        -0.5080   -2.5170   -3.2990 hc        1 MOL      0.050229
    105 H46        -1.3340   -3.6460   -4.2560 hc        1 MOL      0.050229
    106 H47        -1.8050   -0.5530   -2.1760 hc        1 MOL      0.050229
    107 H48        -1.5860   -0.0200   -3.8560 hc        1 MOL      0.050229
    108 H49        -3.2060   -0.0040   -3.0950 hc        1 MOL      0.050229
    109 N10        -5.4890   -1.9680   -1.9140 n         1 MOL     -0.323991
    110 C35        -6.8600   -1.5100   -1.7410 c3        1 MOL      0.088591
    111 C36        -6.9530    0.0080   -1.4940 c         1 MOL      0.552692
    112 O17        -7.7820    0.7170   -2.1390 o         1 MOL     -0.533906
    113 C37        -7.4720   -2.2740   -0.6220 c3        1 MOL     -0.239585
    114 C38        -7.7300   -3.7430   -0.7710 c         1 MOL      0.620599
    115 N11        -7.6120   -4.4730    0.3090 n         1 MOL     -0.768902
    116 O18        -8.0270   -4.2790   -1.8480 o         1 MOL     -0.510822
    117 H50        -4.8360   -1.8610   -1.1540 hn        1 MOL      0.170659
    118 H51        -7.4370   -1.6690   -2.6450 h1        1 MOL      0.069492
    119 H52        -8.3950   -1.7540   -0.3710 hc        1 MOL      0.091265
    120 H53        -6.8310   -2.1130    0.2450 hc        1 MOL      0.091265
    121 H54        -7.2170   -4.1650    1.1890 hn        1 MOL      0.358106
    122 H55        -7.9470   -5.4280    0.3090 hn        1 MOL      0.358106
    123 N12        -6.3350    0.5620   -0.4210 n         1 MOL     -0.725298
    124 C39        -6.3660    1.9400   -0.0110 c3        1 MOL      0.764074
    125 C40        -4.9870    2.5540    0.2820 c         1 MOL      0.209017
    126 O19        -3.9590    1.8610    0.4500 o         1 MOL     -0.484230
    127 C41        -7.3160    2.1350    1.1680 c3        1 MOL     -0.327847
    128 C42        -8.6950    1.6050    0.9370 ca        1 MOL      0.071529
    129 C43        -9.7800    2.3830    0.5480 ca        1 MOL     -0.093248
    130 C44        -8.9880    0.2580    1.3340 ca        1 MOL     -0.093248
    131 C45       -11.1270    1.9240    0.6140 ca        1 MOL     -0.298855
    132 C46       -10.3410   -0.1450    1.5310 ca        1 MOL     -0.298855
    133 C47       -11.4390    0.6630    1.1860 ca        1 MOL      0.363288
    134 O20       -12.7690    0.2630    1.3790 oh        1 MOL     -0.527746
    135 H56        -5.9030   -0.1270    0.1830 hn        1 MOL      0.312787
    136 H57        -6.7350    2.5080   -0.8700 h1        1 MOL     -0.084648
    137 H58        -7.3220    3.2200    1.2640 hc        1 MOL      0.103262
    138 H59        -6.7590    1.6750    1.9890 hc        1 MOL      0.103262
    139 H60        -9.5860    3.3570    0.1270 ha        1 MOL      0.102827
    140 H61        -8.2120   -0.3530    1.7640 ha        1 MOL      0.102827
    141 H62       -11.9350    2.5860    0.3530 ha        1 MOL      0.140588
    142 H63       -10.6690   -1.0900    1.9400 ha        1 MOL      0.140588
    143 H64       -13.4080    0.9450    1.1760 ho        1 MOL      0.378249
    144 N13        -4.9730    3.9070    0.2380 n         1 MOL     -0.442329
    145 C48        -3.9200    4.8710    0.6380 c3        1 MOL     -0.045262
    146 C49        -2.6760    4.8840   -0.2690 c         1 MOL      0.443389
    147 O21        -2.0960    5.9810   -0.5250 o         1 MOL     -0.509461
    148 C50        -3.4790    4.6400    2.1110 c3        1 MOL      0.025491
    149 C51        -4.5670    4.6340    3.2130 c3        1 MOL     -0.127808
    150 C52        -4.0380    4.6070    4.5990 c         1 MOL      0.709276
    151 O22        -4.1180    3.5450    5.2620 o         1 MOL     -0.732789
    152 O23        -3.4970    5.6400    5.0510 o         1 MOL     -0.732789
    153 H65        -5.8550    4.2920   -0.0540 hn        1 MOL      0.299312
    154 H66        -4.3280    5.8830    0.5450 h1        1 MOL      0.095827
    155 H67        -2.7190    5.3390    2.4670 hc        1 MOL      0.061901
    156 H68        -2.9730    3.6910    2.2330 hc        1 MOL      0.061901
    157 H69        -5.2690    3.7990    3.1080 hc        1 MOL     -0.024769
    158 H70        -5.2310    5.4980    3.1480 hc        1 MOL     -0.024769
    159 N14        -2.1380    3.7820   -0.8650 n         1 MOL     -0.438447
    160 C53        -1.0040    3.8920   -1.8320 c3        1 MOL      0.117537
    161 C54        -1.4770    4.5050   -3.1510 c         1 MOL      0.497928
    162 O24        -0.6580    5.2700   -3.7330 o         1 MOL     -0.547438
    163 C55        -0.3600    2.5110   -2.1330 c3        1 MOL     -0.252311
    164 C56         0.2740    1.8870   -0.9890 c3        1 MOL      0.407607
    165 C57         1.5290    2.6350   -0.3250 c         1 MOL      0.549861
    166 O25         2.5600    1.9610   -0.0860 o         1 MOL     -0.616379
    167 O26         1.4710    3.8020    0.1070 o         1 MOL     -0.616379
    168 H71        -2.6720    2.9200   -0.8710 hn        1 MOL      0.302177
    169 H72        -0.2400    4.5560   -1.4270 h1        1 MOL      0.102929
    170 H73         0.3740    2.6710   -2.9180 hc        1 MOL      0.034778
    171 H74        -1.1020    1.7940   -2.4680 hc        1 MOL      0.034778
    172 H75         0.5470    0.8430   -1.1330 hc        1 MOL     -0.102349
    173 H76        -0.4840    1.7860   -0.2100 hc        1 MOL     -0.102349
    174 N15        -2.6200    4.1530   -3.7320 n         1 MOL     -0.328890
    175 C58        -3.4500    4.9480   -4.6580 c3        1 MOL     -0.235403
    176 H77        -4.4890    4.9220   -4.3280 h1        1 MOL      0.110537
    177 H78        -3.0980    5.9800   -4.6690 h1        1 MOL      0.110537
    178 H79        -3.3780    4.5290   -5.6620 h1        1 MOL      0.110537
    179 H80        -3.0480    3.3190   -3.3530 hn        1 MOL      0.244751
    180 Ca1         4.6640    1.8960    1.3580 Ca        1 MOL      1.731785
    181 O27         6.2600    0.0200    2.4080 oh        1 MOL     -0.839642
    182 H81         6.0120   -0.5350    3.1420 ho        1 MOL      0.400456
    183 H82         7.2130    0.0260    2.4090 ho        1 MOL      0.400456
    184 O28         2.4910    1.6250    3.0120 oh        1 MOL     -0.839642
    185 H83         2.5360    1.1990    3.8740 ho        1 MOL      0.400456
    186 H84         1.6140    2.0000    2.9850 ho        1 MOL      0.400456
    187 O29         5.1750    2.9050    3.8010 oh        1 MOL     -0.839642
    188 H85         4.8200    2.9890    4.6820 ho        1 MOL      0.400456
    189 H86         6.1040    3.1040    3.8870 ho        1 MOL      0.400456
    190 O30         3.7860    4.5200    1.2610 oh        1 MOL     -0.839642
    191 H87         4.0920    5.1680    0.6300 ho        1 MOL      0.400456
    192 H88         2.9120    4.2660    0.9380 ho        1 MOL      0.400456
@<TRIPOS>BOND
     1    1    2 1   
     2    1    4 1   
     3    1    5 1   
     4    1    6 1   
     5    2    3 2   
     6    2    7 1   
     7    7    8 1   
     8    7   15 1   
     9    8    9 1   
    10    8   11 1   
    11    8   16 1   
    12    9   10 2   
    13    9   19 1   
    14   11   12 1   
    15   11   17 1   
    16   11   18 1   
    17   12   13 1   
    18   12   14 1   
    19   19   20 1   
    20   19   27 1   
    21   20   21 1   
    22   20   23 1   
    23   20   28 1   
    24   21   22 2   
    25   21   38 1   
    26   23   24 1   
    27   23   25 1   
    28   23   29 1   
    29   24   26 1   
    30   24   30 1   
    31   24   31 1   
    32   25   32 1   
    33   25   33 1   
    34   25   34 1   
    35   26   35 1   
    36   26   36 1   
    37   26   37 1   
    38   38   39 1   
    39   38   46 1   
    40   39   40 1   
    41   39   42 1   
    42   39   47 1   
    43   40   41 2   
    44   40   50 1   
    45   42   43 1   
    46   42   48 1   
    47   42   49 1   
    48   43   44 1   
    49   43   45 1   
    50   50   51 1   
    51   50   54 1   
    52   51   52 1   
    53   51   55 1   
    54   51   56 1   
    55   52   53 2   
    56   52   57 1   
    57   57   58 1   
    58   57   65 1   
    59   58   59 1   
    60   58   61 1   
    61   58   66 1   
    62   59   60 2   
    63   59   69 1   
    64   61   62 1   
    65   61   67 1   
    66   61   68 1   
    67   62   63 1   
    68   62   64 1   
    69   69   70 1   
    70   69   73 1   
    71   70   71 1   
    72   70   74 1   
    73   70   75 1   
    74   71   72 2   
    75   71   76 1   
    76   76   77 1   
    77   76   85 1   
    78   77   78 1   
    79   77   80 1   
    80   77   86 1   
    81   78   79 2   
    82   78   93 1   
    83   80   81 1   
    84   80   87 1   
    85   80   88 1   
    86   81   82 1   
    87   81   89 1   
    88   81   90 1   
    89   82   83 1   
    90   82   84 2   
    91   83   91 1   
    92   83   92 1   
    93   93   94 1   
    94   93  100 1   
    95   94   95 1   
    96   94   97 1   
    97   94  101 1   
    98   95   96 2   
    99   95  109 1   
   100   97   98 1   
   101   97   99 1   
   102   97  102 1   
   103   98  103 1   
   104   98  104 1   
   105   98  105 1   
   106   99  106 1   
   107   99  107 1   
   108   99  108 1   
   109  109  110 1   
   110  109  117 1   
   111  110  111 1   
   112  110  113 1   
   113  110  118 1   
   114  111  112 2   
   115  111  123 1   
   116  113  114 1   
   117  113  119 1   
   118  113  120 1   
   119  114  115 1   
   120  114  116 2   
   121  115  121 1   
   122  115  122 1   
   123  123  124 1   
   124  123  135 1   
   125  124  125 1   
   126  124  127 1   
   127  124  136 1   
   128  125  126 2   
   129  125  144 1   
   130  127  128 1   
   131  127  137 1   
   132  127  138 1   
   133  128  129 ar  
   134  128  130 ar  
   135  129  131 ar  
   136  129  139 1   
   137  130  132 ar  
   138  130  140 1   
   139  131  133 ar  
   140  131  141 1   
   141  132  133 ar  
   142  132  142 1   
   143  133  134 1   
   144  134  143 1   
   145  144  145 1   
   146  144  153 1   
   147  145  146 1   
   148  145  148 1   
   149  145  154 1   
   150  146  147 2   
   151  146  159 1   
   152  148  149 1   
   153  148  155 1   
   154  148  156 1   
   155  149  150 1   
   156  149  157 1   
   157  149  158 1   
   158  150  151 1   
   159  150  152 1   
   160  159  160 1   
   161  159  168 1   
   162  160  161 1   
   163  160  163 1   
   164  160  169 1   
   165  161  162 2   
   166  161  174 1   
   167  163  164 1   
   168  163  170 1   
   169  163  171 1   
   170  164  165 1   
   171  164  172 1   
   172  164  173 1   
   173  165  166 1   
   174  165  167 1   
   175  174  175 1   
   176  174  179 1   
   177  175  176 1   
   178  175  177 1   
   179  175  178 1   
   180  181  182 1   
   181  181  183 1   
   182  184  185 1   
   183  184  186 1   
   184  187  188 1   
   185  187  189 1   
   186  190  191 1   
   187  190  192 1   
@<TRIPOS>SUBSTRUCTURE
     1 MOL         1 TEMP              0 ****  ****    0 ROOT
