@<TRIPOS>MOLECULE
MOL
  192   187     1     0     0
SMALL
resp


@<TRIPOS>ATOM
      1 C1          9.4910    0.7990    1.9170 c3        1 MOL     -0.660848
      2 C2          8.3190    0.3470    1.0600 c         1 MOL      0.842011
      3 O1          7.1400    0.4050    1.4310 o         1 MOL     -0.713989
      4 H1          9.2280    1.7210    2.4350 hc        1 MOL      0.166413
      5 H2          9.7270    0.0260    2.6480 hc        1 MOL      0.166413
      6 H3         10.3600    0.9750    1.2810 hc        1 MOL      0.166413
      7 N1          8.5650   -0.1540   -0.1700 n         1 MOL     -0.527992
      8 C3          7.5780   -0.4150   -1.2490 c3        1 MOL     -0.032444
      9 C4          6.7400   -1.7400   -1.0950 c         1 MOL      0.417571
     10 O2          6.4310   -2.4100   -2.0560 o         1 MOL     -0.433660
     11 C5          8.3360   -0.2850   -2.5660 c3        1 MOL     -0.127396
     12 C6          9.5200   -1.2800   -2.8060 c         1 MOL      0.659749
     13 O3         10.0890   -1.2030   -3.9030 o         1 MOL     -0.628984
     14 O4          9.7590   -2.2960   -2.0440 o         1 MOL     -0.628984
     15 H4          9.5270   -0.3420   -0.4050 hn        1 MOL      0.228423
     16 H5          6.9350    0.4670   -1.2970 h1        1 MOL      0.130377
     17 H6          8.6710    0.7550   -2.6660 hc        1 MOL      0.061919
     18 H7          7.6140   -0.4180   -3.3650 hc        1 MOL      0.061919
     19 N2          6.5100   -2.1090    0.1430 n         1 MOL     -0.315230
     20 C7          6.0610   -3.4060    0.5410 c3        1 MOL      0.037884
     21 C8          4.5490   -3.7050    0.2220 c         1 MOL      0.543135
     22 O5          4.2450   -4.8140   -0.1270 o         1 MOL     -0.544029
     23 C9          6.4850   -3.7320    1.9700 c3        1 MOL      0.044486
     24 C10         8.0340   -3.7780    2.0690 c3        1 MOL     -0.162407
     25 C11         8.5120   -4.2390    3.4560 c3        1 MOL      0.018125
     26 C12         9.9730   -4.0640    3.7700 c3        1 MOL      0.021980
     27 N3         10.2470   -3.9680    5.2160 n4        1 MOL     -0.371699
     28 H8          6.9670   -1.4910    0.8080 hn        1 MOL      0.286976
     29 H9          6.5650   -4.1260   -0.1150 h1        1 MOL      0.093854
     30 H10         6.0210   -4.6780    2.2770 hc        1 MOL     -0.006609
     31 H11         6.1350   -2.9510    2.6510 hc        1 MOL     -0.006609
     32 H12         8.4900   -2.8190    1.8380 hc        1 MOL      0.065801
     33 H13         8.3360   -4.5080    1.3230 hc        1 MOL      0.065801
     34 H14         8.3390   -5.3080    3.6060 hc        1 MOL      0.031143
     35 H15         7.9090   -3.7190    4.2020 hc        1 MOL      0.031143
     36 H16        10.3520   -3.2660    3.1400 hx        1 MOL      0.088897
     37 H17        10.4150   -4.9080    3.2370 hx        1 MOL      0.088897
     38 H18        11.2340   -4.0400    5.4220 hn        1 MOL      0.294083
     39 H19         9.9880   -3.0620    5.5830 hn        1 MOL      0.294083
     40 H20         9.7310   -4.6940    5.6930 hn        1 MOL      0.294083
     41 N4          3.6330   -2.7100    0.1960 n         1 MOL     -0.384159
     42 C13         3.6420   -1.4720    0.9440 c3        1 MOL     -0.089461
     43 C14         3.7230   -0.2190    0.0280 c         1 MOL      0.064523
     44 O6          3.7460   -0.4090   -1.2000 o         1 MOL     -0.345660
     45 C15         2.4640   -1.3830    1.8840 c3        1 MOL     -0.123750
     46 C16         1.1650   -1.7120    1.2470 c         1 MOL      0.789452
     47 O7          0.7720   -1.1780    0.2070 o         1 MOL     -0.715443
     48 O8          0.4910   -2.6630    1.7990 o         1 MOL     -0.715443
     49 H21         2.7270   -2.9940   -0.1470 hn        1 MOL      0.333019
     50 H22         4.5280   -1.4750    1.5870 h1        1 MOL      0.133217
     51 H23         2.3800   -0.4320    2.4100 hc        1 MOL      0.038269
     52 H24         2.5870   -2.0110    2.7630 hc        1 MOL      0.038269
     53 N5          4.0400    1.0260    0.4670 n         1 MOL     -0.060627
     54 C17         4.2440    2.2590   -0.3380 c3        1 MOL     -0.171257
     55 C18         2.8980    2.7570   -0.8690 c         1 MOL      0.725661
     56 O9          1.8690    2.0900   -0.6710 o         1 MOL     -0.603503
     57 H25         4.0040    1.1190    1.4740 hn        1 MOL      0.221159
     58 H26         4.7840    2.0720   -1.2700 h1        1 MOL      0.089489
     59 H27         4.7000    3.0140    0.2850 h1        1 MOL      0.089489
     60 N6          2.9020    3.8810   -1.5910 n         1 MOL     -0.548881
     61 C19         1.8020    4.5350   -2.3910 c3        1 MOL      0.458387
     62 C20         2.1240    6.0140   -2.3510 c         1 MOL      0.403175
     63 O10         3.2690    6.4870   -2.3400 o         1 MOL     -0.528201
     64 C21         1.9030    3.9860   -3.8120 c3        1 MOL     -0.372232
     65 C22         1.7120    2.4540   -3.8260 c         1 MOL      0.720692
     66 O11         0.6190    2.0130   -3.3850 o         1 MOL     -0.660233
     67 O12         2.5780    1.6770   -4.2910 o         1 MOL     -0.660233
     68 H28         3.7420    4.4390   -1.6070 hn        1 MOL      0.261074
     69 H29         0.8580    4.2990   -1.9050 h1        1 MOL     -0.132882
     70 H30         2.8130    4.2880   -4.3160 hc        1 MOL      0.085816
     71 H31         1.0890    4.3810   -4.4300 hc        1 MOL      0.085816
     72 N7          1.2000    6.9330   -2.6010 n         1 MOL     -0.418151
     73 C23        -0.2150    6.7210   -2.6050 c3        1 MOL     -0.017175
     74 C24        -0.6990    6.1730   -1.3090 c         1 MOL      0.632401
     75 O13        -0.2170    6.4630   -0.1610 o         1 MOL     -0.518331
     76 H32         1.5590    7.8690   -2.4700 hn        1 MOL      0.317620
     77 H33        -0.5160    6.1330   -3.4750 h1        1 MOL      0.062393
     78 H34        -0.7450    7.6760   -2.6780 h1        1 MOL      0.062393
     79 N8         -1.8950    5.5040   -1.4580 n         1 MOL     -0.613163
     80 C25        -2.5790    4.8690   -0.2980 c3        1 MOL      0.006974
     81 C26        -1.6790    3.8500    0.3480 c         1 MOL      0.788081
     82 O14        -0.8670    3.1600   -0.3240 o         1 MOL     -0.720270
     83 C27        -4.0290    4.4560   -0.6300 c3        1 MOL      0.388975
     84 C28        -4.8610    4.2210    0.6170 c3        1 MOL     -0.179607
     85 O15        -3.9980    3.2410   -1.4030 oh        1 MOL     -0.682739
     86 H35        -2.4020    5.5280   -2.3350 hn        1 MOL      0.310202
     87 H36        -2.6890    5.6160    0.4870 h1        1 MOL      0.038087
     88 H37        -4.5260    5.2720   -1.1490 h1        1 MOL      0.006895
     89 H38        -3.6830    3.4760   -2.2840 ho        1 MOL      0.431404
     90 H39        -4.8920    5.0880    1.2700 hc        1 MOL      0.055587
     91 H40        -5.8850    4.1090    0.2510 hc        1 MOL      0.055587
     92 H41        -4.4960    3.3550    1.1550 hc        1 MOL      0.055587
     93 N9         -1.6520    3.8010    1.6930 n         1 MOL     -0.731953
     94 C29        -0.8530    2.9100    2.5850 c3        1 MOL      0.059546
     95 C30        -1.1420    1.4210    2.3480 c         1 MOL      0.544378
     96 O16        -0.5840    0.7890    1.4750 o         1 MOL     -0.601182
     97 C31         0.7110    3.1100    2.5260 c3        1 MOL      0.259045
     98 C32         1.1510    4.5890    2.0640 c3        1 MOL     -0.118656
     99 C33         1.2410    2.8590    3.9660 c3        1 MOL     -0.267047
    100 C34         2.5660    5.1250    2.3360 c3        1 MOL     -0.127305
    101 H42        -2.0480    4.6170    2.1420 hn        1 MOL      0.346262
    102 H43        -1.1260    3.1670    3.6130 h1        1 MOL      0.049377
    103 H44         1.1160    2.3750    1.8370 hc        1 MOL     -0.048579
    104 H45         0.4540    5.3280    2.4480 hc        1 MOL      0.059374
    105 H46         1.1210    4.4700    0.9750 hc        1 MOL      0.059374
    106 H47         2.3280    2.9030    3.9080 hc        1 MOL      0.050177
    107 H48         0.9200    3.6870    4.6020 hc        1 MOL      0.050177
    108 H49         0.7910    1.9540    4.3790 hc        1 MOL      0.050177
    109 H50         2.7810    6.1350    1.9870 hc        1 MOL      0.039537
    110 H51         2.7430    5.2180    3.4130 hc        1 MOL      0.039537
    111 H52         3.2450    4.3920    1.8810 hc        1 MOL      0.039537
    112 N10        -2.1260    0.9590    2.9970 n         1 MOL     -0.151816
    113 C35        -2.6650   -0.4020    3.0310 c3        1 MOL     -0.233731
    114 C36        -4.2410   -0.4940    3.0160 c         1 MOL      0.527922
    115 O17        -4.7400   -1.6300    3.2160 o         1 MOL     -0.580807
    116 C37        -2.1440   -1.1790    4.2420 c3        1 MOL      0.562551
    117 C38        -2.3390   -0.3020    5.4620 c3        1 MOL     -0.193213
    118 O18        -0.7620   -1.3820    4.0170 oh        1 MOL     -0.627625
    119 H53        -2.5080    1.6120    3.6650 hn        1 MOL      0.188250
    120 H54        -2.2980   -0.9360    2.1460 h1        1 MOL      0.142818
    121 H55        -2.6890   -2.1140    4.4090 h1        1 MOL     -0.027852
    122 H56        -0.6200   -1.7170    3.1310 ho        1 MOL      0.331676
    123 H57        -1.6260    0.5290    5.4360 hc        1 MOL      0.026164
    124 H58        -3.3580    0.0890    5.4070 hc        1 MOL      0.026164
    125 H59        -2.1990   -0.9710    6.3050 hc        1 MOL      0.026164
    126 N11        -5.0200    0.5170    2.6250 n         1 MOL     -0.340117
    127 C39        -6.4810    0.4010    2.4500 c3        1 MOL      0.270603
    128 C40        -6.8420   -0.4160    1.1910 c         1 MOL      0.484271
    129 O19        -7.2970    0.2260    0.2180 o         1 MOL     -0.512298
    130 C41        -7.1320    1.8110    2.6160 c3        1 MOL      0.267381
    131 C42        -8.6540    1.8110    2.7380 c3        1 MOL     -0.337151
    132 O20        -6.7410    2.2940    3.8880 oh        1 MOL     -0.634210
    133 H60        -4.5030    1.3120    2.2570 hn        1 MOL      0.184735
    134 H61        -6.8480   -0.1840    3.2950 h1        1 MOL      0.036339
    135 H62        -6.7490    2.3790    1.7690 h1        1 MOL     -0.025918
    136 H63        -7.3300    3.0540    3.9410 ho        1 MOL      0.401089
    137 H64        -9.0950    1.0890    3.4320 hc        1 MOL      0.088797
    138 H65        -9.0450    2.8220    2.8390 hc        1 MOL      0.088797
    139 H66        -8.9990    1.4540    1.7670 hc        1 MOL      0.088797
    140 N12        -6.7640   -1.7660    1.2760 n         1 MOL     -0.876150
    141 C43        -6.6270   -2.6750    0.1270 c3        1 MOL      0.632649
    142 C44        -5.3050   -2.3920   -0.6370 c         1 MOL      0.391219
    143 O21        -4.6580   -1.3670   -0.3530 o         1 MOL     -0.475625
    144 C45        -7.8280   -2.6990   -0.8270 c3        1 MOL     -0.524584
    145 C46        -9.2270   -2.6880   -0.1020 c3        1 MOL      0.067725
    146 C47       -10.2860   -3.0040   -1.2290 c3        1 MOL     -0.090700
    147 C48       -11.6740   -3.5080   -0.7230 c3        1 MOL      0.047752
    148 N13       -12.3580   -2.4480    0.1170 n4        1 MOL     -0.273380
    149 H67        -6.2700   -2.0640    2.1040 hn        1 MOL      0.400028
    150 H68        -6.5680   -3.6830    0.5280 h1        1 MOL     -0.029794
    151 H69        -7.7010   -3.5580   -1.4960 hc        1 MOL      0.145356
    152 H70        -7.7700   -1.7880   -1.4100 hc        1 MOL      0.145356
    153 H71        -9.3570   -1.6610    0.2440 hc        1 MOL      0.042904
    154 H72        -9.2570   -3.4620    0.6580 hc        1 MOL      0.042904
    155 H73       -10.0150   -3.9300   -1.7330 hc        1 MOL      0.076879
    156 H74       -10.3380   -2.1660   -1.9350 hc        1 MOL      0.076879
    157 H75       -11.5740   -4.3980   -0.1010 hx        1 MOL      0.074561
    158 H76       -12.2440   -3.8830   -1.5740 hx        1 MOL      0.074561
    159 H77       -13.3210   -2.6740    0.2950 hn        1 MOL      0.225082
    160 H78       -11.9930   -2.3020    1.0450 hn        1 MOL      0.225082
    161 H79       -12.3790   -1.5890   -0.4070 hn        1 MOL      0.225082
    162 N14        -4.8710   -3.2590   -1.5300 n         1 MOL     -0.492399
    163 C49        -3.5390   -3.0680   -2.1570 c3        1 MOL      0.302867
    164 C50        -2.3310   -2.5600   -1.3100 c         1 MOL      0.210766
    165 O22        -1.7360   -1.5270   -1.6080 o         1 MOL     -0.523382
    166 C51        -3.0740   -4.3180   -2.8760 c3        1 MOL      0.058164
    167 C52        -4.0460   -4.7740   -3.9670 c3        1 MOL     -0.259422
    168 C53        -3.7900   -6.1000   -4.6210 c         1 MOL      0.703391
    169 O23        -4.6460   -6.9820   -4.4470 o         1 MOL     -0.644904
    170 O24        -2.7130   -6.3940   -5.1890 o         1 MOL     -0.644904
    171 H80        -5.2040   -4.2110   -1.4600 hn        1 MOL      0.287821
    172 H81        -3.6920   -2.3110   -2.9350 h1        1 MOL     -0.006336
    173 H82        -3.0550   -5.1160   -2.1430 hc        1 MOL      0.041582
    174 H83        -2.0860   -4.3390   -3.3190 hc        1 MOL      0.041582
    175 H84        -4.0650   -4.0400   -4.7860 hc        1 MOL      0.017474
    176 H85        -5.0630   -4.6690   -3.5700 hc        1 MOL      0.017474
    177 N15        -1.9690   -3.1750   -0.1820 n         1 MOL     -0.165276
    178 C54        -2.4210   -4.4520    0.4520 c3        1 MOL     -0.117973
    179 H86        -2.3600   -5.2610   -0.2770 h1        1 MOL      0.067943
    180 H87        -1.7790   -4.6830    1.3030 h1        1 MOL      0.067943
    181 H88        -3.4500   -4.3460    0.7920 h1        1 MOL      0.067943
    182 H89        -1.2590   -2.6450    0.2960 hn        1 MOL      0.241590
    183 Ca1        -0.3260    0.6820   -1.1700 Ca        1 MOL      1.847782
    184 O25        -2.1200    0.6070   -3.4510 oh        1 MOL     -0.873055
    185 H90        -2.0160    0.1070   -4.2610 ho        1 MOL      0.419517
    186 H91        -2.8550    0.1770   -3.0020 ho        1 MOL      0.419517
    187 O26         0.8650   -0.7950   -3.2160 oh        1 MOL     -0.873055
    188 O27        -3.0840    0.7250   -0.3590 oh        1 MOL     -0.873055
    189 H92         0.5430   -1.3280   -3.9420 ho        1 MOL      0.419517
    190 H93        -3.6190    1.4410   -0.7180 ho        1 MOL      0.419517
    191 H94         1.8040   -0.7100   -3.3810 ho        1 MOL      0.419517
    192 H95        -3.6960   -0.0080   -0.2760 ho        1 MOL      0.419517
@<TRIPOS>BOND
     1    1    2 1   
     2    1    4 1   
     3    1    5 1   
     4    1    6 1   
     5    2    3 2   
     6    2    7 1   
     7    7    8 1   
     8    7   15 1   
     9    8    9 1   
    10    8   11 1   
    11    8   16 1   
    12    9   10 2   
    13    9   19 1   
    14   11   12 1   
    15   11   17 1   
    16   11   18 1   
    17   12   13 1   
    18   12   14 1   
    19   19   20 1   
    20   19   28 1   
    21   20   21 1   
    22   20   23 1   
    23   20   29 1   
    24   21   22 2   
    25   21   41 1   
    26   23   24 1   
    27   23   30 1   
    28   23   31 1   
    29   24   25 1   
    30   24   32 1   
    31   24   33 1   
    32   25   26 1   
    33   25   34 1   
    34   25   35 1   
    35   26   27 1   
    36   26   36 1   
    37   26   37 1   
    38   27   38 1   
    39   27   39 1   
    40   27   40 1   
    41   41   42 1   
    42   41   49 1   
    43   42   43 1   
    44   42   45 1   
    45   42   50 1   
    46   43   44 2   
    47   43   53 1   
    48   45   46 1   
    49   45   51 1   
    50   45   52 1   
    51   46   47 1   
    52   46   48 1   
    53   53   54 1   
    54   53   57 1   
    55   54   55 1   
    56   54   58 1   
    57   54   59 1   
    58   55   56 2   
    59   55   60 1   
    60   60   61 1   
    61   60   68 1   
    62   61   62 1   
    63   61   64 1   
    64   61   69 1   
    65   62   63 2   
    66   62   72 1   
    67   64   65 1   
    68   64   70 1   
    69   64   71 1   
    70   65   66 1   
    71   65   67 1   
    72   72   73 1   
    73   72   76 1   
    74   73   74 1   
    75   73   77 1   
    76   73   78 1   
    77   74   75 2   
    78   74   79 1   
    79   79   80 1   
    80   79   86 1   
    81   80   81 1   
    82   80   83 1   
    83   80   87 1   
    84   81   82 2   
    85   81   93 1   
    86   83   84 1   
    87   83   85 1   
    88   83   88 1   
    89   84   90 1   
    90   84   91 1   
    91   84   92 1   
    92   85   89 1   
    93   93   94 1   
    94   93  101 1   
    95   94   95 1   
    96   94   97 1   
    97   94  102 1   
    98   95   96 2   
    99   95  112 1   
   100   97   98 1   
   101   97   99 1   
   102   97  103 1   
   103   98  100 1   
   104   98  104 1   
   105   98  105 1   
   106   99  106 1   
   107   99  107 1   
   108   99  108 1   
   109  100  109 1   
   110  100  110 1   
   111  100  111 1   
   112  112  113 1   
   113  112  119 1   
   114  113  114 1   
   115  113  116 1   
   116  113  120 1   
   117  114  115 2   
   118  114  126 1   
   119  116  117 1   
   120  116  118 1   
   121  116  121 1   
   122  117  123 1   
   123  117  124 1   
   124  117  125 1   
   125  118  122 1   
   126  126  127 1   
   127  126  133 1   
   128  127  128 1   
   129  127  130 1   
   130  127  134 1   
   131  128  129 2   
   132  128  140 1   
   133  130  131 1   
   134  130  132 1   
   135  130  135 1   
   136  131  137 1   
   137  131  138 1   
   138  131  139 1   
   139  132  136 1   
   140  140  141 1   
   141  140  149 1   
   142  141  142 1   
   143  141  144 1   
   144  141  150 1   
   145  142  143 2   
   146  142  162 1   
   147  144  145 1   
   148  144  151 1   
   149  144  152 1   
   150  145  146 1   
   151  145  153 1   
   152  145  154 1   
   153  146  147 1   
   154  146  155 1   
   155  146  156 1   
   156  147  148 1   
   157  147  157 1   
   158  147  158 1   
   159  148  159 1   
   160  148  160 1   
   161  148  161 1   
   162  162  163 1   
   163  162  171 1   
   164  163  164 1   
   165  163  166 1   
   166  163  172 1   
   167  164  165 2   
   168  164  177 1   
   169  166  167 1   
   170  166  173 1   
   171  166  174 1   
   172  167  168 1   
   173  167  175 1   
   174  167  176 1   
   175  168  169 1   
   176  168  170 1   
   177  177  178 1   
   178  177  182 1   
   179  178  179 1   
   180  178  180 1   
   181  178  181 1   
   182  184  185 1   
   183  184  186 1   
   184  187  189 1   
   185  187  191 1   
   186  188  190 1   
   187  188  192 1   
@<TRIPOS>SUBSTRUCTURE
     1 MOL         1 TEMP              0 ****  ****    0 ROOT
