@<TRIPOS>MOLECULE
MOL
  175   173     1     0     0
SMALL
resp


@<TRIPOS>ATOM
      1 C1         -6.3990    8.0850    2.0180 c3        1 MOL     -0.338370
      2 C2         -7.5050    7.3480    1.1670 c         1 MOL      0.693951
      3 O1         -8.0710    7.9540    0.2840 o         1 MOL     -0.582612
      4 H1         -5.4890    7.4850    2.0270 hc        1 MOL      0.078883
      5 H2         -6.1870    9.0570    1.5750 hc        1 MOL      0.078883
      6 H3         -6.7550    8.2200    3.0390 hc        1 MOL      0.078883
      7 N1         -7.9530    6.1470    1.4330 n         1 MOL     -0.528470
      8 C3         -8.8960    5.3990    0.5800 c3        1 MOL      0.148656
      9 C4         -8.2860    4.3970   -0.4260 c         1 MOL      0.538800
     10 O2         -8.9650    3.9460   -1.3260 o         1 MOL     -0.541821
     11 C5         -9.9510    4.6880    1.4250 c3        1 MOL     -0.338476
     12 C6        -11.1340    4.2260    0.5590 c         1 MOL      0.823014
     13 O3        -11.8010    5.0670   -0.0820 o         1 MOL     -0.748498
     14 O4        -11.6150    3.1220    0.7930 o         1 MOL     -0.748498
     15 H4         -7.5900    5.5470    2.1650 hn        1 MOL      0.272072
     16 H5         -9.4500    6.0590   -0.0800 h1        1 MOL      0.074693
     17 H6        -10.5370    5.2940    2.1190 hc        1 MOL      0.056903
     18 H7         -9.5550    3.8720    2.0250 hc        1 MOL      0.056903
     19 N2         -6.9930    4.0710   -0.3010 n         1 MOL     -0.471905
     20 C7         -6.2540    3.0790   -1.0690 c3        1 MOL      0.225299
     21 C8         -5.1540    2.4680   -0.1880 c         1 MOL      0.404563
     22 O5         -4.5500    3.1770    0.6190 o         1 MOL     -0.507763
     23 C9         -5.5530    3.9030   -2.1840 c3        1 MOL     -0.324684
     24 H8         -6.4490    4.6190    0.3440 hn        1 MOL      0.231920
     25 H9         -6.9160    2.3750   -1.5720 h1        1 MOL      0.059689
     26 H10        -4.9680    3.2480   -2.8280 hc        1 MOL      0.095041
     27 H11        -6.2640    4.4870   -2.7590 hc        1 MOL      0.095041
     28 H12        -4.9500    4.6960   -1.7400 hc        1 MOL      0.095041
     29 N3         -4.8390    1.1640   -0.3120 n         1 MOL     -0.262865
     30 C10        -5.3630    0.1340   -1.1570 c3        1 MOL     -0.258020
     31 C11        -5.5480   -1.2190   -0.4250 c         1 MOL      0.594016
     32 O6         -4.7890   -1.5210    0.4760 o         1 MOL     -0.510785
     33 C12        -4.4670   -0.0650   -2.3420 c3        1 MOL      0.144415
     34 C13        -3.0360   -0.4320   -1.9480 c         1 MOL      0.479066
     35 O7         -2.1450    0.4720   -1.6560 o         1 MOL     -0.654643
     36 O8         -2.8290   -1.6220   -1.9020 o         1 MOL     -0.654643
     37 H13        -4.0790    0.8710    0.2900 hn        1 MOL      0.252840
     38 H14        -6.2860    0.4250   -1.6460 h1        1 MOL      0.086955
     39 H15        -4.3380    0.8450   -2.9310 hc        1 MOL     -0.020507
     40 H16        -4.9400   -0.7930   -3.0010 hc        1 MOL     -0.020507
     41 N4         -6.5830   -1.9630   -0.8740 n         1 MOL     -0.427258
     42 C14        -6.9470   -3.2550   -0.3380 c3        1 MOL      0.001850
     43 C15        -6.8590   -4.3530   -1.4390 c         1 MOL      0.459866
     44 O9         -7.9540   -4.7160   -1.9780 o         1 MOL     -0.546194
     45 H17        -7.0710   -1.5970   -1.6800 hn        1 MOL      0.321869
     46 H18        -7.9460   -3.1170    0.0800 h1        1 MOL      0.089111
     47 H19        -6.3420   -3.3840    0.5530 h1        1 MOL      0.089111
     48 N5         -5.7090   -4.9140   -1.7550 n         1 MOL     -0.426701
     49 C16        -4.3750   -4.6870   -1.0710 c3        1 MOL      0.099430
     50 C17        -4.4620   -5.3660    0.3390 c         1 MOL      0.477733
     51 O10        -5.4050   -6.1470    0.5790 o         1 MOL     -0.526711
     52 C18        -3.2160   -5.3610   -1.8710 c3        1 MOL      0.012675
     53 C19        -1.8110   -4.7570   -1.5940 c         1 MOL      0.251129
     54 N6         -0.8890   -5.0410   -2.4430 n         1 MOL     -0.496956
     55 O11        -1.6660   -3.9570   -0.6700 o         1 MOL     -0.328782
     56 H20        -5.7290   -5.5580   -2.5290 hn        1 MOL      0.286052
     57 H21        -4.2140   -3.6270   -0.9230 h1        1 MOL      0.016900
     58 H22        -3.3920   -5.2480   -2.9470 hc        1 MOL      0.036523
     59 H23        -3.2900   -6.4330   -1.6880 hc        1 MOL      0.036523
     60 H24        -1.0700   -5.7050   -3.1820 hn        1 MOL      0.307678
     61 H25        -0.0440   -4.4900   -2.4520 hn        1 MOL      0.307678
     62 N7         -3.4500   -5.1020    1.1640 n         1 MOL     -0.407242
     63 C20        -3.1260   -5.5510    2.5200 c3        1 MOL      0.043181
     64 C21        -1.6120   -5.6800    2.7450 c         1 MOL      0.361572
     65 O12        -1.1660   -6.2810    3.7900 o         1 MOL     -0.579191
     66 H26        -2.7800   -4.4620    0.7580 hn        1 MOL      0.306505
     67 H27        -3.5810   -6.5350    2.6520 h1        1 MOL      0.077831
     68 H28        -3.5370   -4.9740    3.3450 h1        1 MOL      0.077831
     69 N8         -0.7170   -5.2410    1.8630 n         1 MOL     -0.078255
     70 C22         0.7920   -5.4170    1.8680 c3        1 MOL      0.053298
     71 C23         1.4910   -4.0350    1.6080 c         1 MOL      0.269164
     72 O13         0.8270   -3.1620    1.0690 o         1 MOL     -0.529077
     73 C24         1.3850   -6.4700    0.9190 c3        1 MOL      0.405906
     74 C25         1.0080   -7.8500    1.4000 c3        1 MOL     -0.376537
     75 O14         0.9350   -6.2950   -0.4070 oh        1 MOL     -0.672005
     76 H29        -1.1310   -4.7380    1.0900 hn        1 MOL      0.062331
     77 H30         1.0600   -5.6580    2.8940 h1        1 MOL      0.032856
     78 H31         2.4680   -6.4040    0.9570 h1        1 MOL     -0.026869
     79 H32         1.5060   -5.5580   -0.6680 ho        1 MOL      0.496185
     80 H33         0.9180   -8.5700    0.5870 hc        1 MOL      0.085708
     81 H34         1.6530   -8.1820    2.2260 hc        1 MOL      0.085708
     82 H35         0.0190   -7.8180    1.8660 hc        1 MOL      0.085708
     83 N9          2.7710   -3.9330    2.0970 n         1 MOL     -0.123458
     84 C26         3.5410   -2.7240    2.0010 c3        1 MOL      0.072738
     85 C27         4.3820   -2.8080    0.7960 c         1 MOL      0.308816
     86 O15         5.3430   -3.5540    0.7720 o         1 MOL     -0.546876
     87 C28         4.3890   -2.6150    3.2860 c3        1 MOL      0.082517
     88 C29         5.3900   -1.4330    3.2760 c3        1 MOL     -0.074612
     89 C30         3.4020   -2.4890    4.4820 c3        1 MOL     -0.293258
     90 C31         4.9480    0.0020    2.9170 c3        1 MOL     -0.505105
     91 H36         3.1240   -4.7800    2.5070 hn        1 MOL      0.199186
     92 H37         2.9080   -1.8490    1.9140 h1        1 MOL      0.130470
     93 H38         4.9330   -3.5360    3.5060 hc        1 MOL      0.008897
     94 H39         6.1970   -1.7230    2.6080 hc        1 MOL      0.049906
     95 H40         5.8120   -1.2780    4.2760 hc        1 MOL      0.049906
     96 H41         2.7220   -3.3430    4.5220 hc        1 MOL      0.065229
     97 H42         3.9470   -2.5690    5.4190 hc        1 MOL      0.065229
     98 H43         2.7830   -1.6060    4.3360 hc        1 MOL      0.065229
     99 H44         5.8400    0.6170    2.8470 hc        1 MOL      0.160920
    100 H45         4.5110   -0.0450    1.9210 hc        1 MOL      0.160920
    101 H46         4.0970    0.2250    3.5630 hc        1 MOL      0.160920
    102 N10         4.1110   -2.0010   -0.2470 n         1 MOL     -0.022212
    103 C32         4.5620   -2.1440   -1.6130 c3        1 MOL     -0.009483
    104 C33         5.3990   -1.0100   -2.1760 c         1 MOL      0.415893
    105 O16         5.7850   -1.0030   -3.3480 o         1 MOL     -0.535222
    106 C34         3.3880   -2.4780   -2.5510 c3        1 MOL     -0.080391
    107 C35         2.2960   -3.3740   -1.9540 c         1 MOL      0.800195
    108 O17         2.6050   -4.4410   -1.3340 o         1 MOL     -0.767581
    109 O18         1.0750   -3.0670   -2.0430 o         1 MOL     -0.767581
    110 H47         3.2390   -1.4990   -0.1270 hn        1 MOL      0.034696
    111 H48         5.1850   -3.0450   -1.6270 h1        1 MOL      0.093761
    112 H49         3.6920   -2.9350   -3.4950 hc        1 MOL      0.028208
    113 H50         2.9250   -1.5610   -2.9060 hc        1 MOL      0.028208
    114 N11         5.6120    0.0190   -1.3530 n         1 MOL     -0.276715
    115 C36         6.5760    1.0560   -1.6000 c3        1 MOL      0.122468
    116 C37         6.3750    2.3300   -0.6680 c         1 MOL      0.417588
    117 O19         6.1240    2.1540    0.5530 o         1 MOL     -0.520850
    118 C38         8.0040    0.5080   -1.3240 c3        1 MOL     -0.015351
    119 C39         9.1280    1.4420   -0.8270 ca        1 MOL      0.008141
    120 C40         9.3120    1.5710    0.5910 ca        1 MOL     -0.143513
    121 C41        10.1040    2.0220   -1.6630 ca        1 MOL     -0.143513
    122 C42        10.3580    2.3880    1.1010 ca        1 MOL     -0.127467
    123 C43        11.1100    2.8520   -1.1140 ca        1 MOL     -0.127467
    124 C44        11.1730    3.1350    0.2520 ca        1 MOL     -0.089465
    125 H51         5.1390    0.0050   -0.4640 hn        1 MOL      0.154008
    126 H52         6.5060    1.4160   -2.6220 h1        1 MOL      0.021205
    127 H53         8.3880    0.1000   -2.2660 hc        1 MOL      0.044532
    128 H54         8.0140   -0.4320   -0.7760 hc        1 MOL      0.044532
    129 H55         8.6170    1.1330    1.3030 ha        1 MOL      0.121718
    130 H56        10.0810    1.7520   -2.7100 ha        1 MOL      0.121718
    131 H57        10.4410    2.4920    2.1660 ha        1 MOL      0.103317
    132 H58        11.7650    3.3470   -1.8180 ha        1 MOL      0.103317
    133 H59        11.9120    3.7950    0.6920 ha        1 MOL      0.099740
    134 N12         6.7240    3.5070   -1.1820 n         1 MOL     -0.039227
    135 C45         6.5730    4.8130   -0.5890 c3        1 MOL     -0.120623
    136 C46         5.1210    5.1520    0.0050 c         1 MOL      0.348227
    137 O20         4.8520    6.2100    0.5830 o         1 MOL     -0.525154
    138 C47         6.9640    5.8530   -1.5780 c3        1 MOL      0.028287
    139 C48         7.8790    5.1030   -2.3980 c3        1 MOL     -0.071728
    140 C49         7.1640    3.7780   -2.5100 c3        1 MOL      0.026688
    141 H60         7.2660    4.8830    0.2600 h1        1 MOL      0.112228
    142 H61         6.0530    6.1190   -2.1130 hc        1 MOL      0.044518
    143 H62         7.4290    6.7550   -1.1780 hc        1 MOL      0.044518
    144 H63         7.9820    5.6320   -3.3540 hc        1 MOL      0.025912
    145 H64         8.8010    4.9010   -1.8550 hc        1 MOL      0.025912
    146 H65         6.3780    3.7600   -3.2650 h1        1 MOL      0.018123
    147 H66         7.9020    3.0340   -2.8120 h1        1 MOL      0.018123
    148 N13         4.1570    4.2720   -0.1450 n         1 MOL     -0.143647
    149 C50         2.7520    4.3890    0.3690 c3        1 MOL     -0.121012
    150 C51         2.6590    4.6300    1.8910 c         1 MOL      0.550488
    151 O21         1.6680    5.1720    2.3580 o         1 MOL     -0.533712
    152 C52         1.9730    3.1640   -0.0500 c3        1 MOL     -0.130959
    153 C53         2.4440    1.8410    0.5290 c3        1 MOL      0.243728
    154 C54         1.3170    0.8250    0.2400 c         1 MOL      0.590456
    155 O22         0.1090    1.1090    0.4480 o         1 MOL     -0.667958
    156 O23         1.6190   -0.3650    0.1010 o         1 MOL     -0.667958
    157 H67         4.3460    3.3850   -0.5780 hn        1 MOL      0.102821
    158 H68         2.3530    5.3170   -0.0380 h1        1 MOL      0.117873
    159 H69         1.9320    3.1300   -1.1340 hc        1 MOL      0.056620
    160 H70         0.9560    3.3620    0.3080 hc        1 MOL      0.056620
    161 H71         2.5700    1.8590    1.6100 hc        1 MOL     -0.088463
    162 H72         3.3880    1.4990    0.1150 hc        1 MOL     -0.088463
    163 N14         3.7470    4.3430    2.6110 n         1 MOL     -0.241430
    164 C55         3.7860    4.8450    4.0390 c3        1 MOL     -0.032842
    165 H73         2.7790    5.1140    4.3570 h1        1 MOL      0.046975
    166 H74         4.1740    4.0620    4.6900 h1        1 MOL      0.046975
    167 H75         4.4310    5.7230    4.0990 h1        1 MOL      0.046975
    168 H76         4.5460    3.8620    2.2160 hn        1 MOL      0.203103
    169 Ca1        -0.5060   -1.5480   -0.7910 Ca        1 MOL      1.682321
    170 O24        -2.4090   -1.5130    1.3190 oh        1 MOL     -0.912060
    171 H77        -2.2750   -0.6000    1.5630 ho        1 MOL      0.429301
    172 H78        -3.3170   -1.5610    1.0180 ho        1 MOL      0.429301
    173 O25         0.3320   -0.1280   -2.9340 oh        1 MOL     -0.912060
    174 H79        -0.1890    0.6700   -2.9840 ho        1 MOL      0.429301
    175 H80         0.7330   -0.2120   -3.8040 ho        1 MOL      0.429301
@<TRIPOS>BOND
     1    1    2 1   
     2    1    4 1   
     3    1    5 1   
     4    1    6 1   
     5    2    3 2   
     6    2    7 1   
     7    7    8 1   
     8    7   15 1   
     9    8    9 1   
    10    8   11 1   
    11    8   16 1   
    12    9   10 2   
    13    9   19 1   
    14   11   12 1   
    15   11   17 1   
    16   11   18 1   
    17   12   13 1   
    18   12   14 1   
    19   19   20 1   
    20   19   24 1   
    21   20   21 1   
    22   20   23 1   
    23   20   25 1   
    24   21   22 2   
    25   21   29 1   
    26   23   26 1   
    27   23   27 1   
    28   23   28 1   
    29   29   30 1   
    30   29   37 1   
    31   30   31 1   
    32   30   33 1   
    33   30   38 1   
    34   31   32 2   
    35   31   41 1   
    36   33   34 1   
    37   33   39 1   
    38   33   40 1   
    39   34   35 1   
    40   34   36 1   
    41   41   42 1   
    42   41   45 1   
    43   42   43 1   
    44   42   46 1   
    45   42   47 1   
    46   43   44 2   
    47   43   48 1   
    48   48   49 1   
    49   48   56 1   
    50   49   50 1   
    51   49   52 1   
    52   49   57 1   
    53   50   51 2   
    54   50   62 1   
    55   52   53 1   
    56   52   58 1   
    57   52   59 1   
    58   53   54 1   
    59   53   55 2   
    60   54   60 1   
    61   54   61 1   
    62   62   63 1   
    63   62   66 1   
    64   63   64 1   
    65   63   67 1   
    66   63   68 1   
    67   64   65 2   
    68   64   69 1   
    69   69   70 1   
    70   69   76 1   
    71   70   71 1   
    72   70   73 1   
    73   70   77 1   
    74   71   72 2   
    75   71   83 1   
    76   73   74 1   
    77   73   75 1   
    78   73   78 1   
    79   74   80 1   
    80   74   81 1   
    81   74   82 1   
    82   75   79 1   
    83   83   84 1   
    84   83   91 1   
    85   84   85 1   
    86   84   87 1   
    87   84   92 1   
    88   85   86 2   
    89   85  102 1   
    90   87   88 1   
    91   87   89 1   
    92   87   93 1   
    93   88   90 1   
    94   88   94 1   
    95   88   95 1   
    96   89   96 1   
    97   89   97 1   
    98   89   98 1   
    99   90   99 1   
   100   90  100 1   
   101   90  101 1   
   102  102  103 1   
   103  102  110 1   
   104  103  104 1   
   105  103  106 1   
   106  103  111 1   
   107  104  105 2   
   108  104  114 1   
   109  106  107 1   
   110  106  112 1   
   111  106  113 1   
   112  107  108 1   
   113  107  109 1   
   114  114  115 1   
   115  114  125 1   
   116  115  116 1   
   117  115  118 1   
   118  115  126 1   
   119  116  117 2   
   120  116  134 1   
   121  118  119 1   
   122  118  127 1   
   123  118  128 1   
   124  119  120 ar  
   125  119  121 ar  
   126  120  122 ar  
   127  120  129 1   
   128  121  123 ar  
   129  121  130 1   
   130  122  124 ar  
   131  122  131 1   
   132  123  124 ar  
   133  123  132 1   
   134  124  133 1   
   135  134  135 1   
   136  134  140 1   
   137  135  136 1   
   138  135  138 1   
   139  135  141 1   
   140  136  137 2   
   141  136  148 1   
   142  138  139 1   
   143  138  142 1   
   144  138  143 1   
   145  139  140 1   
   146  139  144 1   
   147  139  145 1   
   148  140  146 1   
   149  140  147 1   
   150  148  149 1   
   151  148  157 1   
   152  149  150 1   
   153  149  152 1   
   154  149  158 1   
   155  150  151 2   
   156  150  163 1   
   157  152  153 1   
   158  152  159 1   
   159  152  160 1   
   160  153  154 1   
   161  153  161 1   
   162  153  162 1   
   163  154  155 1   
   164  154  156 1   
   165  163  164 1   
   166  163  168 1   
   167  164  165 1   
   168  164  166 1   
   169  164  167 1   
   170  170  171 1   
   171  170  172 1   
   172  173  174 1   
   173  173  175 1   
@<TRIPOS>SUBSTRUCTURE
     1 MOL         1 TEMP              0 ****  ****    0 ROOT
