@<TRIPOS>MOLECULE
MOL
  189   185     1     0     0
SMALL
resp


@<TRIPOS>ATOM
      1 C1         -4.1760   -4.2810   -3.7060 c3        1 MOL     -0.447563
      2 C2         -4.8720   -3.6360   -2.5460 c         1 MOL      0.776063
      3 O1         -4.3100   -3.4950   -1.4580 o         1 MOL     -0.637318
      4 H1         -3.1850   -3.8440   -3.8240 hc        1 MOL      0.110109
      5 H2         -4.0810   -5.3520   -3.5240 hc        1 MOL      0.110109
      6 H3         -4.7560   -4.1170   -4.6150 hc        1 MOL      0.110109
      7 N1         -6.0820   -3.1960   -2.8850 n         1 MOL     -0.679031
      8 C3         -6.8460   -2.2120   -2.1120 c3        1 MOL      0.181889
      9 C4         -5.9500   -1.0340   -1.7220 c         1 MOL      0.342933
     10 O2         -5.4170   -0.9150   -0.6120 o         1 MOL     -0.478782
     11 C5         -7.7650   -2.7870   -1.0470 c3        1 MOL     -0.166932
     12 C6         -7.1960   -3.7200    0.0200 c         1 MOL      0.790340
     13 O3         -6.1940   -3.3240    0.6570 o         1 MOL     -0.731406
     14 O4         -7.7780   -4.8070    0.2790 o         1 MOL     -0.731406
     15 H4         -6.4580   -3.2810   -3.8270 hn        1 MOL      0.350899
     16 H5         -7.5200   -1.7120   -2.8170 h1        1 MOL      0.035201
     17 H6         -8.6280   -3.2940   -1.4770 hc        1 MOL      0.029529
     18 H7         -8.0710   -1.9060   -0.4750 hc        1 MOL      0.029529
     19 N2         -5.8230   -0.1030   -2.7420 n         1 MOL     -0.370001
     20 C7         -5.1000    1.1530   -2.6670 c3        1 MOL      0.069650
     21 C8         -5.6990    2.2380   -1.7250 c         1 MOL      0.424923
     22 O5         -5.9490    3.3350   -2.1900 o         1 MOL     -0.562850
     23 C9         -3.5500    0.9550   -2.5290 c3        1 MOL      0.264152
     24 C10        -2.7860    2.3590   -2.5260 c3        1 MOL     -0.032326
     25 C11        -2.8650   -0.0140   -3.5050 c3        1 MOL     -0.581074
     26 C12        -2.8120    2.9460   -3.9360 c3        1 MOL     -0.326655
     27 H8         -6.3510   -0.3630   -3.5600 hn        1 MOL      0.250652
     28 H9         -5.1740    1.5960   -3.6620 h1        1 MOL      0.050605
     29 H10        -3.3400    0.5730   -1.5310 hc        1 MOL     -0.130334
     30 H11        -1.7530    2.2380   -2.2270 hc        1 MOL      0.072244
     31 H12        -3.2920    3.0500   -1.8580 hc        1 MOL      0.072244
     32 H13        -3.1260    0.2000   -4.5390 hc        1 MOL      0.149459
     33 H14        -1.8100   -0.1270   -3.2560 hc        1 MOL      0.149459
     34 H15        -3.1860   -1.0320   -3.3040 hc        1 MOL      0.149459
     35 H16        -2.2250    3.8710   -4.0010 hc        1 MOL      0.064496
     36 H17        -2.3780    2.2390   -4.6280 hc        1 MOL      0.064496
     37 H18        -3.8510    3.1910   -4.1540 hc        1 MOL      0.064496
     38 N3         -6.0850    1.8590   -0.5270 n         1 MOL     -0.240981
     39 C13        -6.8190    2.6510    0.4880 c3        1 MOL      0.313174
     40 C14        -6.2280    3.9610    0.9540 c         1 MOL      0.354500
     41 O6         -7.0220    4.9310    1.1430 o         1 MOL     -0.590293
     42 C15        -7.3460    1.7730    1.6370 c3        1 MOL     -0.329835
     43 C16        -8.2560    0.6480    1.1440 c         1 MOL      0.780619
     44 O7         -8.6390   -0.2510    1.9400 o         1 MOL     -0.715766
     45 O8         -8.7350    0.6840   -0.0080 o         1 MOL     -0.715766
     46 H19        -5.9750    0.8650   -0.3630 hn        1 MOL      0.154426
     47 H20        -7.7280    2.9700   -0.0330 h1        1 MOL      0.008971
     48 H21        -7.9770    2.3590    2.2990 hc        1 MOL      0.071926
     49 H22        -6.4380    1.4810    2.1670 hc        1 MOL      0.071926
     50 N4         -4.9730    4.2260    1.2920 n         1 MOL     -0.317061
     51 C17        -3.9210    3.2870    1.5790 c3        1 MOL      0.061347
     52 C18        -2.7160    3.9020    2.2680 c         1 MOL      0.527900
     53 O9         -2.4150    5.0200    2.0020 o         1 MOL     -0.548238
     54 H23        -4.8070    5.2030    1.5000 hn        1 MOL      0.258204
     55 H24        -3.5410    3.0090    0.5920 h1        1 MOL      0.038887
     56 H25        -4.2890    2.4040    2.1090 h1        1 MOL      0.038887
     57 N5         -1.9280    3.1500    3.1040 n         1 MOL     -0.580330
     58 C19        -2.0850    1.6890    3.3650 c3        1 MOL      0.346501
     59 C20        -2.2710    0.8520    2.0740 c         1 MOL      0.141817
     60 O10        -3.2720    0.2030    1.7330 o         1 MOL     -0.450989
     61 C21        -3.1270    1.3330    4.4310 c3        1 MOL     -0.383237
     62 C22        -3.1240   -0.1610    4.7660 c         1 MOL      0.749025
     63 O11        -2.0700   -0.8710    4.6450 o         1 MOL     -0.683289
     64 O12        -4.2090   -0.7050    5.1590 o         1 MOL     -0.683289
     65 H26        -1.1430    3.6480    3.5080 hn        1 MOL      0.316407
     66 H27        -1.1650    1.3660    3.8530 h1        1 MOL      0.032446
     67 H28        -4.1320    1.6320    4.1320 hc        1 MOL      0.087617
     68 H29        -2.9050    1.9370    5.3040 hc        1 MOL      0.087617
     69 N6         -1.3330    0.9850    1.1230 n         1 MOL     -0.182305
     70 C23        -0.1100    1.7100    1.1400 c3        1 MOL     -0.076623
     71 C24         0.0100    2.9970    0.3080 c         1 MOL      0.457534
     72 O13        -1.0040    3.5390   -0.0560 o         1 MOL     -0.449376
     73 H30        -1.5500    0.5300    0.2450 hn        1 MOL      0.286359
     74 H31         0.6760    1.0380    0.8000 h1        1 MOL      0.062498
     75 H32         0.2560    1.9780    2.1330 h1        1 MOL      0.062498
     76 N7          1.2140    3.5420    0.0910 n         1 MOL     -0.445753
     77 C25         1.5380    4.7570   -0.6790 c3        1 MOL      0.028683
     78 C26         2.4090    4.5630   -1.9200 c         1 MOL      0.522534
     79 O14         2.6150    5.5140   -2.6360 o         1 MOL     -0.540720
     80 C27         2.0260    5.8220    0.2600 c3        1 MOL      0.019545
     81 C28         0.8560    6.3410    1.2080 c3        1 MOL     -0.180348
     82 C29         1.2570    7.4930    2.0960 c         1 MOL      0.701147
     83 N8          0.3460    8.3990    2.4850 n         1 MOL     -0.866929
     84 O15         2.3200    7.5210    2.6610 o         1 MOL     -0.582711
     85 H33         1.9970    3.1190    0.5770 hn        1 MOL      0.264753
     86 H34         0.6100    5.1050   -1.1520 h1        1 MOL      0.112684
     87 H35         2.3290    6.6920   -0.3300 hc        1 MOL      0.013265
     88 H36         2.9380    5.5760    0.8090 hc        1 MOL      0.013265
     89 H37         0.3290    5.5850    1.7900 hc        1 MOL      0.071136
     90 H38         0.0950    6.6760    0.5040 hc        1 MOL      0.071136
     91 H39        -0.6320    8.2040    2.3070 hn        1 MOL      0.377784
     92 H40         0.6640    8.9490    3.2780 hn        1 MOL      0.377784
     93 N9          2.7570    3.3550   -2.2670 n         1 MOL     -0.430964
     94 C30         3.1940    3.0430   -3.5970 c3        1 MOL     -0.031781
     95 C31         4.6300    2.3880   -3.6460 c         1 MOL      0.462478
     96 O16         5.2710    2.3630   -4.7320 o         1 MOL     -0.543658
     97 C32         2.1470    2.1720   -4.3520 c3        1 MOL      0.207463
     98 C33         0.8260    3.0250   -4.5060 c3        1 MOL     -0.226360
     99 C34         1.8220    0.8420   -3.5920 c3        1 MOL     -0.226360
    100 H41         2.5410    2.5700   -1.6590 hn        1 MOL      0.287105
    101 H42         3.2740    3.8860   -4.2880 h1        1 MOL      0.113289
    102 H43         2.5420    1.9620   -5.3450 hc        1 MOL     -0.001425
    103 H44         1.0820    4.0220   -4.8620 hc        1 MOL      0.055286
    104 H45         0.1440    2.5670   -5.2250 hc        1 MOL      0.055286
    105 H46         0.3520    3.1510   -3.5380 hc        1 MOL      0.055286
    106 H47         1.0690    0.2480   -4.1150 hc        1 MOL      0.055286
    107 H48         2.7540    0.2750   -3.5390 hc        1 MOL      0.055286
    108 H49         1.5550    0.9410   -2.5430 hc        1 MOL      0.055286
    109 N10         5.1990    2.0400   -2.4570 n         1 MOL     -0.335172
    110 C35         6.4960    1.2880   -2.2500 c3        1 MOL      0.207403
    111 C36         6.4250   -0.1480   -1.7950 c         1 MOL      0.487931
    112 O17         6.8550   -1.0010   -2.6150 o         1 MOL     -0.564484
    113 C37         7.3800    2.0180   -1.2190 c3        1 MOL     -0.233134
    114 C38         6.7040    2.6040    0.0180 c         1 MOL      0.516673
    115 N11         7.3760    3.4710    0.7270 n         1 MOL     -0.680624
    116 O18         5.6610    2.1100    0.4440 o         1 MOL     -0.497798
    117 H50         4.5810    1.9280   -1.6660 hn        1 MOL      0.169113
    118 H51         7.1340    1.2960   -3.1310 h1        1 MOL      0.049872
    119 H52         7.6850    2.9800   -1.6240 hc        1 MOL      0.067411
    120 H53         8.3020    1.4610   -1.0530 hc        1 MOL      0.067411
    121 H54         8.2900    3.7280    0.3850 hn        1 MOL      0.353829
    122 H55         7.0310    3.7530    1.6310 hn        1 MOL      0.353829
    123 N12         5.8670   -0.4680   -0.6120 n         1 MOL     -0.409979
    124 C39         6.0950   -1.7010    0.1010 c3        1 MOL      0.024257
    125 C40         4.8030   -2.4540    0.4090 c         1 MOL      0.916504
    126 O19         3.7580   -1.8310    0.4050 o         1 MOL     -0.611335
    127 C41         6.7990   -1.2690    1.4130 c3        1 MOL     -0.207567
    128 C42         8.1930   -0.6430    1.4770 ca        1 MOL      0.094569
    129 C43         9.3190   -1.3610    0.8850 ca        1 MOL     -0.128615
    130 C44         8.3650    0.6620    2.0150 ca        1 MOL     -0.128615
    131 C45        10.5870   -0.8380    0.9140 ca        1 MOL     -0.316202
    132 C46         9.6900    1.0920    2.1350 ca        1 MOL     -0.316202
    133 C47        10.7630    0.4160    1.5460 ca        1 MOL      0.412303
    134 O20        11.9830    1.0320    1.5070 oh        1 MOL     -0.579330
    135 H56         5.4100    0.2170   -0.0150 hn        1 MOL      0.264408
    136 H57         6.7270   -2.3700   -0.4820 h1        1 MOL      0.033060
    137 H58         6.8700   -2.1490    2.0450 hc        1 MOL      0.087964
    138 H59         6.0750   -0.6240    1.9190 hc        1 MOL      0.087964
    139 H60         9.1620   -2.2530    0.3050 ha        1 MOL      0.149408
    140 H61         7.5710    1.2080    2.5020 ha        1 MOL      0.149408
    141 H62        11.3720   -1.3270    0.3600 ha        1 MOL      0.146210
    142 H63         9.8980    1.9840    2.6950 ha        1 MOL      0.146210
    143 H64        12.6880    0.5990    1.0070 ho        1 MOL      0.400187
    144 N13         4.9910   -3.7440    0.6060 n         1 MOL     -0.848949
    145 C48         3.9810   -4.7670    0.9030 c3        1 MOL      0.306438
    146 C49         2.6950   -4.8480   -0.0140 c         1 MOL      0.132333
    147 O21         1.8440   -5.6710    0.2510 o         1 MOL     -0.493106
    148 C50         3.6450   -4.9110    2.4020 c3        1 MOL      0.104138
    149 C51         4.8710   -4.9340    3.3400 c3        1 MOL     -0.204453
    150 C52         4.3750   -5.1830    4.8270 c         1 MOL      0.676499
    151 O22         4.7940   -4.3990    5.6870 o         1 MOL     -0.708978
    152 O23         3.5940   -6.0640    5.1190 o         1 MOL     -0.708978
    153 H65         5.9250   -4.1430    0.6410 hn        1 MOL      0.351107
    154 H66         4.4310   -5.7360    0.7030 h1        1 MOL      0.015230
    155 H67         3.2040   -5.8970    2.5590 hc        1 MOL      0.027543
    156 H68         3.0110   -4.0500    2.6230 hc        1 MOL      0.027543
    157 H69         5.4280   -4.0040    3.2760 hc        1 MOL     -0.018351
    158 H70         5.5200   -5.7330    2.9890 hc        1 MOL     -0.018351
    159 N14         2.4780   -4.0620   -1.0050 n         1 MOL      0.093119
    160 C53         1.3270   -3.9470   -1.9210 c3        1 MOL     -0.232528
    161 C54         1.4200   -4.6930   -3.2420 c         1 MOL      0.559033
    162 O24         0.4400   -4.7650   -3.9430 o         1 MOL     -0.523697
    163 C55         0.9550   -2.4330   -1.9230 c3        1 MOL     -0.014331
    164 C56         0.5440   -1.8760   -0.5420 c3        1 MOL      0.324189
    165 C57        -0.9130   -2.2820   -0.1760 c         1 MOL      0.462630
    166 O25        -1.1000   -3.3980    0.3830 o         1 MOL     -0.613860
    167 O26        -1.8440   -1.4900   -0.2880 o         1 MOL     -0.613860
    168 H71         3.2650   -3.4490   -1.1220 hn        1 MOL      0.072288
    169 H72         0.4980   -4.4510   -1.4170 h1        1 MOL      0.176644
    170 H73         0.1020   -2.2210   -2.5710 hc        1 MOL     -0.008998
    171 H74         1.7870   -1.8140   -2.2470 hc        1 MOL     -0.008998
    172 H75         0.5900   -0.7920   -0.5510 hc        1 MOL     -0.106131
    173 H76         1.1060   -2.3510    0.2620 hc        1 MOL     -0.106131
    174 N15         2.6550   -5.1390   -3.5310 n         1 MOL     -0.340933
    175 C58         2.9760   -6.0970   -4.5980 c3        1 MOL     -0.152946
    176 H77         4.0010   -5.9360   -4.9340 h1        1 MOL      0.081253
    177 H78         2.8760   -7.1130   -4.2160 h1        1 MOL      0.081253
    178 H79         2.2920   -5.9530   -5.4340 h1        1 MOL      0.081253
    179 H80         3.3720   -5.0370   -2.8330 hn        1 MOL      0.233255
    180 Ca1        -3.8880   -2.3360    0.9300 Ca        1 MOL      1.757891
    181 O27        -5.5000   -1.6310    2.9920 oh        1 MOL     -0.844443
    182 H81        -5.4510   -1.1740    3.8240 ho        1 MOL      0.402762
    183 H82        -6.4320   -1.7940    2.8600 ho        1 MOL      0.402762
    184 O28        -3.8140   -5.0200    1.0770 oh        1 MOL     -0.844443
    185 H83        -3.0170   -5.4360    0.7440 ho        1 MOL      0.402762
    186 H84        -4.4990   -5.3100    0.4880 ho        1 MOL      0.402762
    187 O29        -2.4790   -3.0920    3.3560 oh        1 MOL     -0.844443
    188 H85        -1.7120   -3.6650    3.4390 ho        1 MOL      0.402762
    189 H86        -2.3230   -2.3980    4.0040 ho        1 MOL      0.402762
@<TRIPOS>BOND
     1    1    2 1   
     2    1    4 1   
     3    1    5 1   
     4    1    6 1   
     5    2    3 2   
     6    2    7 1   
     7    7    8 1   
     8    7   15 1   
     9    8    9 1   
    10    8   11 1   
    11    8   16 1   
    12    9   10 2   
    13    9   19 1   
    14   11   12 1   
    15   11   17 1   
    16   11   18 1   
    17   12   13 1   
    18   12   14 1   
    19   19   20 1   
    20   19   27 1   
    21   20   21 1   
    22   20   23 1   
    23   20   28 1   
    24   21   22 2   
    25   21   38 1   
    26   23   24 1   
    27   23   25 1   
    28   23   29 1   
    29   24   26 1   
    30   24   30 1   
    31   24   31 1   
    32   25   32 1   
    33   25   33 1   
    34   25   34 1   
    35   26   35 1   
    36   26   36 1   
    37   26   37 1   
    38   38   39 1   
    39   38   46 1   
    40   39   40 1   
    41   39   42 1   
    42   39   47 1   
    43   40   41 2   
    44   40   50 1   
    45   42   43 1   
    46   42   48 1   
    47   42   49 1   
    48   43   44 1   
    49   43   45 1   
    50   50   51 1   
    51   50   54 1   
    52   51   52 1   
    53   51   55 1   
    54   51   56 1   
    55   52   53 2   
    56   52   57 1   
    57   57   58 1   
    58   57   65 1   
    59   58   59 1   
    60   58   61 1   
    61   58   66 1   
    62   59   60 2   
    63   59   69 1   
    64   61   62 1   
    65   61   67 1   
    66   61   68 1   
    67   62   63 1   
    68   62   64 1   
    69   69   70 1   
    70   69   73 1   
    71   70   71 1   
    72   70   74 1   
    73   70   75 1   
    74   71   72 2   
    75   71   76 1   
    76   76   77 1   
    77   76   85 1   
    78   77   78 1   
    79   77   80 1   
    80   77   86 1   
    81   78   79 2   
    82   78   93 1   
    83   80   81 1   
    84   80   87 1   
    85   80   88 1   
    86   81   82 1   
    87   81   89 1   
    88   81   90 1   
    89   82   83 1   
    90   82   84 2   
    91   83   91 1   
    92   83   92 1   
    93   93   94 1   
    94   93  100 1   
    95   94   95 1   
    96   94   97 1   
    97   94  101 1   
    98   95   96 2   
    99   95  109 1   
   100   97   98 1   
   101   97   99 1   
   102   97  102 1   
   103   98  103 1   
   104   98  104 1   
   105   98  105 1   
   106   99  106 1   
   107   99  107 1   
   108   99  108 1   
   109  109  110 1   
   110  109  117 1   
   111  110  111 1   
   112  110  113 1   
   113  110  118 1   
   114  111  112 2   
   115  111  123 1   
   116  113  114 1   
   117  113  119 1   
   118  113  120 1   
   119  114  115 1   
   120  114  116 2   
   121  115  121 1   
   122  115  122 1   
   123  123  124 1   
   124  123  135 1   
   125  124  125 1   
   126  124  127 1   
   127  124  136 1   
   128  125  126 2   
   129  125  144 1   
   130  127  128 1   
   131  127  137 1   
   132  127  138 1   
   133  128  129 ar  
   134  128  130 ar  
   135  129  131 ar  
   136  129  139 1   
   137  130  132 ar  
   138  130  140 1   
   139  131  133 ar  
   140  131  141 1   
   141  132  133 ar  
   142  132  142 1   
   143  133  134 1   
   144  134  143 1   
   145  144  145 1   
   146  144  153 1   
   147  145  146 1   
   148  145  148 1   
   149  145  154 1   
   150  146  147 2   
   151  146  159 1   
   152  148  149 1   
   153  148  155 1   
   154  148  156 1   
   155  149  150 1   
   156  149  157 1   
   157  149  158 1   
   158  150  151 1   
   159  150  152 1   
   160  159  160 1   
   161  159  168 1   
   162  160  161 1   
   163  160  163 1   
   164  160  169 1   
   165  161  162 2   
   166  161  174 1   
   167  163  164 1   
   168  163  170 1   
   169  163  171 1   
   170  164  165 1   
   171  164  172 1   
   172  164  173 1   
   173  165  166 1   
   174  165  167 1   
   175  174  175 1   
   176  174  179 1   
   177  175  176 1   
   178  175  177 1   
   179  175  178 1   
   180  181  182 1   
   181  181  183 1   
   182  184  185 1   
   183  184  186 1   
   184  187  188 1   
   185  187  189 1   
@<TRIPOS>SUBSTRUCTURE
     1 MOL         1 TEMP              0 ****  ****    0 ROOT
