@<TRIPOS>MOLECULE
MOL
  195   189     1     0     0
SMALL
resp


@<TRIPOS>ATOM
      1 C1         11.9490    4.4250   -2.6510 c3        1 MOL     -0.538828
      2 C2         11.7360    3.3370   -1.5810 c         1 MOL      0.702540
      3 O1         12.5320    2.4370   -1.4050 o         1 MOL     -0.585758
      4 H1         12.9480    4.3270   -3.0740 hc        1 MOL      0.145564
      5 H2         11.2070    4.3070   -3.4410 hc        1 MOL      0.145564
      6 H3         11.8420    5.4090   -2.1950 hc        1 MOL      0.145564
      7 N1         10.6880    3.4300   -0.7590 n         1 MOL     -0.341708
      8 C3         10.2770    2.3450    0.2020 c3        1 MOL     -0.134278
      9 C4          8.9810    1.6810   -0.1920 c         1 MOL      0.567178
     10 O2          8.0440    2.1630   -0.8640 o         1 MOL     -0.716111
     11 C5         10.2050    2.9480    1.6420 c3        1 MOL     -0.167464
     12 C6          9.2980    4.1940    1.8770 c         1 MOL      0.637714
     13 O3          8.2830    4.4510    1.1780 o         1 MOL     -0.656912
     14 O4          9.6410    4.9570    2.7860 o         1 MOL     -0.656912
     15 H4         10.1690    4.2950   -0.8720 hn        1 MOL      0.176730
     16 H5         11.1070    1.6450    0.3030 h1        1 MOL      0.126406
     17 H6         11.2290    3.3160    1.7880 hc        1 MOL      0.093230
     18 H7         10.0330    2.1610    2.3750 hc        1 MOL      0.093230
     19 N2          8.8140    0.4130    0.2690 n         1 MOL     -0.420830
     20 C7          7.7420   -0.4720   -0.1060 c3        1 MOL      0.195241
     21 C8          6.5960   -0.3660    0.8880 c         1 MOL      0.364709
     22 O5          6.8770   -0.4580    2.0970 o         1 MOL     -0.508045
     23 C9          8.2700   -1.8840   -0.2210 c3        1 MOL     -0.172361
     24 C10         7.3120   -2.6340   -1.1650 c3        1 MOL      0.247949
     25 C11         7.5800   -4.1170   -1.4280 c3        1 MOL     -0.042432
     26 C12         6.6690   -4.6910   -2.4730 c3        1 MOL     -0.018449
     27 N3          7.2710   -4.8780   -3.8340 n4        1 MOL     -0.310488
     28 H8          9.5620    0.0310    0.8400 hn        1 MOL      0.286244
     29 H9          7.1870   -0.1670   -0.9910 h1        1 MOL      0.095045
     30 H10         8.4170   -2.3690    0.7400 hc        1 MOL      0.041319
     31 H11         9.2070   -2.0380   -0.7470 hc        1 MOL      0.041319
     32 H12         7.4450   -2.1740   -2.1510 hc        1 MOL     -0.088864
     33 H13         6.2700   -2.4840   -0.8890 hc        1 MOL     -0.088864
     34 H14         7.3240   -4.5590   -0.4590 hc        1 MOL      0.058743
     35 H15         8.6180   -4.4120   -1.5660 hc        1 MOL      0.058743
     36 H16         5.6790   -4.2350   -2.4520 hx        1 MOL      0.088195
     37 H17         6.6490   -5.6930   -2.0330 hx        1 MOL      0.088195
     38 H18         6.5950   -5.1950   -4.5030 hn        1 MOL      0.258026
     39 H19         7.6230   -3.9870   -4.1600 hn        1 MOL      0.258026
     40 H20         8.1130   -5.4350   -3.8490 hn        1 MOL      0.258026
     41 N4          5.4150   -0.0580    0.4460 n         1 MOL     -0.228398
     42 C13         4.1230   -0.0200    1.2730 c3        1 MOL     -0.018906
     43 C14         2.9310    0.0960    0.3200 c         1 MOL      0.578794
     44 O6          3.1650    0.4190   -0.8380 o         1 MOL     -0.491003
     45 C15         4.2030    1.2000    2.1830 c3        1 MOL     -0.208039
     46 C16         4.3530    2.5640    1.5620 c         1 MOL      0.749134
     47 O7          5.4340    2.9340    1.0010 o         1 MOL     -0.688009
     48 O8          3.3760    3.3130    1.5540 o         1 MOL     -0.688009
     49 H21         5.2900   -0.2280   -0.5360 hn        1 MOL      0.097900
     50 H22         4.1180   -0.8990    1.9250 h1        1 MOL      0.149093
     51 H23         4.9690    1.0030    2.9430 hc        1 MOL      0.069824
     52 H24         3.2790    1.2340    2.7480 hc        1 MOL      0.069824
     53 N5          1.6980   -0.0970    0.7470 n         1 MOL     -0.333786
     54 C17         1.2800   -0.7050    2.0030 c3        1 MOL     -0.219742
     55 C18         1.7000   -2.1160    2.2380 c         1 MOL      0.641487
     56 O9          2.5990   -2.6160    1.5500 o         1 MOL     -0.592383
     57 H25         0.9980    0.0160    0.0270 hn        1 MOL      0.264728
     58 H26         0.1920   -0.7110    1.9980 h1        1 MOL      0.122483
     59 H27         1.6360   -0.1330    2.8600 h1        1 MOL      0.122483
     60 N6          1.2100   -2.7620    3.3150 n         1 MOL     -0.459662
     61 C19         1.8420   -3.9320    3.9020 c3        1 MOL      0.156943
     62 C20         1.6640   -5.2480    3.1380 c         1 MOL      0.405498
     63 O10         2.5720   -6.0920    3.1270 o         1 MOL     -0.530397
     64 C21         1.3330   -4.1710    5.3330 c3        1 MOL     -0.288756
     65 C22        -0.1670   -4.3410    5.6340 c         1 MOL      0.718927
     66 O11        -0.5630   -4.3880    6.8290 o         1 MOL     -0.661237
     67 O12        -0.9710   -4.5270    4.7030 o         1 MOL     -0.661237
     68 H28         0.5960   -2.2160    3.8980 hn        1 MOL      0.285042
     69 H29         2.9080   -3.7210    3.9880 h1        1 MOL      0.047512
     70 H30         1.6040   -3.3320    5.9810 hc        1 MOL      0.072701
     71 H31         1.8780   -5.0570    5.6520 hc        1 MOL      0.072701
     72 N7          0.4490   -5.5010    2.5330 n         1 MOL     -0.127045
     73 C23         0.2060   -6.5200    1.5570 c3        1 MOL     -0.031905
     74 C24         0.5560   -6.1280    0.1630 c         1 MOL      0.531107
     75 O13         0.5760   -7.0130   -0.6880 o         1 MOL     -0.577709
     76 H32        -0.3010   -4.8400    2.6900 hn        1 MOL      0.154883
     77 H33        -0.8470   -6.7750    1.4950 h1        1 MOL      0.068553
     78 H34         0.6760   -7.4730    1.7620 h1        1 MOL      0.068553
     79 N8          0.8490   -4.8040   -0.1020 n         1 MOL     -0.149962
     80 C25         0.9400   -4.2620   -1.4210 c3        1 MOL     -0.020567
     81 C26         0.2680   -2.8690   -1.2550 c         1 MOL      0.244324
     82 O14        -0.0950   -2.4780   -0.1330 o         1 MOL     -0.390639
     83 C27         2.4170   -4.2000   -1.9060 c3        1 MOL      0.472318
     84 C28         3.0430   -5.5590   -2.0350 c3        1 MOL     -0.516620
     85 O15         2.3580   -3.6560   -3.1700 oh        1 MOL     -0.615982
     86 H35         0.9780   -4.1670    0.6720 hn        1 MOL      0.022432
     87 H36         0.3330   -4.8390   -2.1180 h1        1 MOL      0.078284
     88 H37         2.9410   -3.5290   -1.2190 h1        1 MOL     -0.011349
     89 H38         3.2070   -3.2530   -3.3840 ho        1 MOL      0.376262
     90 H39         3.4730   -5.8570   -1.0770 hc        1 MOL      0.127738
     91 H40         2.3110   -6.2450   -2.4690 hc        1 MOL      0.127738
     92 H41         3.8200   -5.5510   -2.8160 hc        1 MOL      0.127738
     93 N9         -0.0690   -2.0770   -2.3470 n         1 MOL     -0.101790
     94 C29        -0.4900   -0.7020   -2.2570 c3        1 MOL     -0.088498
     95 C30        -1.8200   -0.5650   -1.5440 c         1 MOL      0.516161
     96 O16        -2.1270    0.3500   -0.7980 o         1 MOL     -0.512749
     97 C31        -0.7560   -0.2060   -3.7180 c3        1 MOL      0.084760
     98 C32         0.4620   -0.5110   -4.7290 c3        1 MOL     -0.167529
     99 C33        -1.0000    1.3230   -3.6570 c3        1 MOL     -0.444274
    100 C34         1.7910   -0.1070   -4.1410 c3        1 MOL     -0.003386
    101 H42         0.0340   -2.4570   -3.2810 hn        1 MOL      0.191505
    102 H43         0.3620   -0.1700   -1.8420 h1        1 MOL      0.071610
    103 H44        -1.5850   -0.6400   -4.2680 hc        1 MOL      0.035085
    104 H45         0.3530    0.1560   -5.5880 hc        1 MOL      0.058275
    105 H46         0.5090   -1.5380   -5.0730 hc        1 MOL      0.058275
    106 H47        -0.2130    1.9190   -3.1890 hc        1 MOL      0.142245
    107 H48        -1.1180    1.7300   -4.6600 hc        1 MOL      0.142245
    108 H49        -1.9370    1.5310   -3.1390 hc        1 MOL      0.142245
    109 H50         1.8150    0.9740   -4.0530 hc        1 MOL     -0.009582
    110 H51         2.0360   -0.5050   -3.1520 hc        1 MOL     -0.009582
    111 H52         2.6400   -0.4360   -4.7410 hc        1 MOL     -0.009582
    112 N10        -2.6800   -1.5770   -1.7050 n         1 MOL     -0.326666
    113 C35        -3.9740   -1.7660   -0.9160 c3        1 MOL     -0.168375
    114 C36        -5.1680   -2.3700   -1.7550 c         1 MOL      0.591431
    115 O17        -5.0630   -3.1950   -2.6180 o         1 MOL     -0.516528
    116 C37        -3.8160   -2.7220    0.3370 c3        1 MOL      0.631347
    117 C38        -3.3530   -4.1590    0.1560 c3        1 MOL     -0.446823
    118 O18        -2.9110   -2.0200    1.1140 oh        1 MOL     -0.667213
    119 H53        -2.4690   -2.2640   -2.4090 hn        1 MOL      0.165912
    120 H54        -4.2700   -0.7670   -0.5860 h1        1 MOL      0.117676
    121 H55        -4.8250   -2.8150    0.7470 h1        1 MOL     -0.042084
    122 H56        -2.0890   -2.0250    0.6190 ho        1 MOL      0.404434
    123 H57        -3.0580   -4.6000    1.1100 hc        1 MOL      0.097629
    124 H58        -4.1180   -4.7760   -0.2980 hc        1 MOL      0.097629
    125 H59        -2.5190   -4.2950   -0.5420 hc        1 MOL      0.097629
    126 N11        -6.3960   -1.8730   -1.4740 n         1 MOL     -0.547101
    127 C39        -7.6750   -2.3260   -1.9130 c3        1 MOL      0.140882
    128 C40        -8.6050   -1.1390   -2.0610 c         1 MOL      0.533036
    129 O19        -8.9990   -0.9150   -3.1800 o         1 MOL     -0.557235
    130 C41        -8.1520   -3.3150   -0.8240 c3        1 MOL      0.311684
    131 C42        -9.3400   -4.1050   -1.3210 c3        1 MOL     -0.391223
    132 O20        -8.5140   -2.8020    0.5330 oh        1 MOL     -0.650354
    133 H60        -6.4350   -1.1970   -0.7290 hn        1 MOL      0.239378
    134 H61        -7.5640   -2.9320   -2.8120 h1        1 MOL      0.082297
    135 H62        -7.3380   -4.0380   -0.7340 h1        1 MOL      0.013382
    136 H63        -8.1740   -3.4180    1.1870 ho        1 MOL      0.415195
    137 H64        -8.9860   -4.7150   -2.1500 hc        1 MOL      0.097503
    138 H65        -9.7110   -4.7470   -0.5110 hc        1 MOL      0.097503
    139 H66       -10.0860   -3.4090   -1.7020 hc        1 MOL      0.097503
    140 N12        -8.8000   -0.2990   -0.9950 n         1 MOL     -0.259789
    141 C43        -9.5150    1.0320   -0.9400 c3        1 MOL     -0.261198
    142 C44        -8.8800    1.8450    0.1950 c         1 MOL      0.633489
    143 O21        -8.4950    1.2310    1.1950 o         1 MOL     -0.481714
    144 C45       -11.0090    0.7950   -0.8520 c3        1 MOL     -0.074450
    145 C46       -11.8070    1.5030    0.2940 c3        1 MOL      0.449636
    146 C47       -13.2120    0.9460    0.3080 c3        1 MOL     -0.166508
    147 C48       -14.2520    1.9590    0.5810 c3        1 MOL      0.087791
    148 N13       -15.5800    1.3530    0.4500 n4        1 MOL     -0.168008
    149 H67        -8.3590   -0.5830   -0.1310 hn        1 MOL      0.203031
    150 H68        -9.1630    1.4110   -1.8900 h1        1 MOL      0.133979
    151 H69       -11.3290   -0.2500   -0.8080 hc        1 MOL      0.027800
    152 H70       -11.4830    1.2440   -1.7260 hc        1 MOL      0.027800
    153 H71       -11.8990    2.5430   -0.0240 hc        1 MOL     -0.090913
    154 H72       -11.3230    1.4860    1.2720 hc        1 MOL     -0.090913
    155 H73       -13.2590    0.2000    1.1020 hc        1 MOL      0.040283
    156 H74       -13.4320    0.5060   -0.6700 hc        1 MOL      0.040283
    157 H75       -14.1180    2.7650   -0.1410 hx        1 MOL      0.054756
    158 H76       -14.1800    2.3540    1.6000 hx        1 MOL      0.054756
    159 H77       -15.5480    0.5630    1.0760 hn        1 MOL      0.233638
    160 H78       -16.3610    1.9780    0.5710 hn        1 MOL      0.233638
    161 H79       -15.7430    0.9560   -0.4670 hn        1 MOL      0.233638
    162 N14        -8.7350    3.1570    0.0550 n         1 MOL     -0.544381
    163 C49        -8.0490    4.0300    0.9130 c3        1 MOL      0.233312
    164 C50        -6.5360    3.6910    0.9710 c         1 MOL      0.365836
    165 O22        -6.0980    3.2960    2.0570 o         1 MOL     -0.507489
    166 C51        -8.2490    5.4580    0.6160 c3        1 MOL      0.160891
    167 C52        -9.5550    5.8650    1.1990 c3        1 MOL     -0.409832
    168 C53        -9.7570    7.3740    1.0770 c         1 MOL      0.744815
    169 O23        -9.2150    8.1580    1.8940 o         1 MOL     -0.644802
    170 O24       -10.3830    7.8800    0.1750 o         1 MOL     -0.644802
    171 H80        -9.1490    3.5430   -0.7750 hn        1 MOL      0.302677
    172 H81        -8.4540    3.7460    1.8820 h1        1 MOL      0.038063
    173 H82        -8.1010    5.6420   -0.4470 hc        1 MOL      0.008025
    174 H83        -7.4200    5.9310    1.1420 hc        1 MOL      0.008025
    175 H84        -9.5800    5.4990    2.2200 hc        1 MOL      0.064353
    176 H85       -10.2780    5.3570    0.5720 hc        1 MOL      0.064353
    177 N15        -5.7500    3.6060   -0.1230 n         1 MOL     -0.356894
    178 C54        -6.0060    4.1410   -1.5020 c3        1 MOL     -0.030338
    179 H86        -5.0660    4.1910   -2.0520 h1        1 MOL      0.041815
    180 H87        -6.6980    3.4810   -2.0250 h1        1 MOL      0.041815
    181 H88        -6.4380    5.1390   -1.4310 h1        1 MOL      0.041815
    182 H89        -4.7930    3.3400    0.0630 hn        1 MOL      0.297292
    183 Ca1         6.4140    4.5230   -0.5820 Ca        1 MOL      1.811454
    184 O25         3.6780    4.9410   -0.2780 oh        1 MOL     -0.945251
    185 H90         3.4230    5.8150    0.0250 ho        1 MOL      0.447655
    186 H91         3.5620    4.3820    0.4840 ho        1 MOL      0.447655
    187 O26         4.7930    2.6360   -1.8570 oh        1 MOL     -0.945251
    188 H92         4.5410    2.3560   -2.7360 ho        1 MOL      0.447655
    189 H93         4.6010    1.8810   -1.3040 ho        1 MOL      0.447655
    190 O27         8.0770    6.8590   -0.3510 oh        1 MOL     -0.945251
    191 H94         8.7940    6.8660    0.2810 ho        1 MOL      0.447655
    192 H95         8.2090    7.6350   -0.8910 ho        1 MOL      0.447655
    193 O28         5.8850    5.8380    1.7750 oh        1 MOL     -0.945251
    194 H96         6.7920    6.1260    1.8710 ho        1 MOL      0.447655
    195 H97         5.5900    5.6760    2.6730 ho        1 MOL      0.447655
@<TRIPOS>BOND
     1    1    2 1   
     2    1    4 1   
     3    1    5 1   
     4    1    6 1   
     5    2    3 2   
     6    2    7 1   
     7    7    8 1   
     8    7   15 1   
     9    8    9 1   
    10    8   11 1   
    11    8   16 1   
    12    9   10 2   
    13    9   19 1   
    14   11   12 1   
    15   11   17 1   
    16   11   18 1   
    17   12   13 1   
    18   12   14 1   
    19   19   20 1   
    20   19   28 1   
    21   20   21 1   
    22   20   23 1   
    23   20   29 1   
    24   21   22 2   
    25   21   41 1   
    26   23   24 1   
    27   23   30 1   
    28   23   31 1   
    29   24   25 1   
    30   24   32 1   
    31   24   33 1   
    32   25   26 1   
    33   25   34 1   
    34   25   35 1   
    35   26   27 1   
    36   26   36 1   
    37   26   37 1   
    38   27   38 1   
    39   27   39 1   
    40   27   40 1   
    41   41   42 1   
    42   41   49 1   
    43   42   43 1   
    44   42   45 1   
    45   42   50 1   
    46   43   44 2   
    47   43   53 1   
    48   45   46 1   
    49   45   51 1   
    50   45   52 1   
    51   46   47 1   
    52   46   48 1   
    53   53   54 1   
    54   53   57 1   
    55   54   55 1   
    56   54   58 1   
    57   54   59 1   
    58   55   56 2   
    59   55   60 1   
    60   60   61 1   
    61   60   68 1   
    62   61   62 1   
    63   61   64 1   
    64   61   69 1   
    65   62   63 2   
    66   62   72 1   
    67   64   65 1   
    68   64   70 1   
    69   64   71 1   
    70   65   66 1   
    71   65   67 1   
    72   72   73 1   
    73   72   76 1   
    74   73   74 1   
    75   73   77 1   
    76   73   78 1   
    77   74   75 2   
    78   74   79 1   
    79   79   80 1   
    80   79   86 1   
    81   80   81 1   
    82   80   83 1   
    83   80   87 1   
    84   81   82 2   
    85   81   93 1   
    86   83   84 1   
    87   83   85 1   
    88   83   88 1   
    89   84   90 1   
    90   84   91 1   
    91   84   92 1   
    92   85   89 1   
    93   93   94 1   
    94   93  101 1   
    95   94   95 1   
    96   94   97 1   
    97   94  102 1   
    98   95   96 2   
    99   95  112 1   
   100   97   98 1   
   101   97   99 1   
   102   97  103 1   
   103   98  100 1   
   104   98  104 1   
   105   98  105 1   
   106   99  106 1   
   107   99  107 1   
   108   99  108 1   
   109  100  109 1   
   110  100  110 1   
   111  100  111 1   
   112  112  113 1   
   113  112  119 1   
   114  113  114 1   
   115  113  116 1   
   116  113  120 1   
   117  114  115 2   
   118  114  126 1   
   119  116  117 1   
   120  116  118 1   
   121  116  121 1   
   122  117  123 1   
   123  117  124 1   
   124  117  125 1   
   125  118  122 1   
   126  126  127 1   
   127  126  133 1   
   128  127  128 1   
   129  127  130 1   
   130  127  134 1   
   131  128  129 2   
   132  128  140 1   
   133  130  131 1   
   134  130  132 1   
   135  130  135 1   
   136  131  137 1   
   137  131  138 1   
   138  131  139 1   
   139  132  136 1   
   140  140  141 1   
   141  140  149 1   
   142  141  142 1   
   143  141  144 1   
   144  141  150 1   
   145  142  143 2   
   146  142  162 1   
   147  144  145 1   
   148  144  151 1   
   149  144  152 1   
   150  145  146 1   
   151  145  153 1   
   152  145  154 1   
   153  146  147 1   
   154  146  155 1   
   155  146  156 1   
   156  147  148 1   
   157  147  157 1   
   158  147  158 1   
   159  148  159 1   
   160  148  160 1   
   161  148  161 1   
   162  162  163 1   
   163  162  171 1   
   164  163  164 1   
   165  163  166 1   
   166  163  172 1   
   167  164  165 2   
   168  164  177 1   
   169  166  167 1   
   170  166  173 1   
   171  166  174 1   
   172  167  168 1   
   173  167  175 1   
   174  167  176 1   
   175  168  169 1   
   176  168  170 1   
   177  177  178 1   
   178  177  182 1   
   179  178  179 1   
   180  178  180 1   
   181  178  181 1   
   182  184  185 1   
   183  184  186 1   
   184  187  188 1   
   185  187  189 1   
   186  190  191 1   
   187  190  192 1   
   188  193  194 1   
   189  193  195 1   
@<TRIPOS>SUBSTRUCTURE
     1 MOL         1 TEMP              0 ****  ****    0 ROOT
