@<TRIPOS>MOLECULE
MOL
  195   189     1     0     0
SMALL
resp


@<TRIPOS>ATOM
      1 C1          3.6530    1.9620    2.6990 c3        1 MOL     -0.270520
      2 C2          2.9760    2.6550    1.4670 c         1 MOL      0.744748
      3 O1          2.1740    2.0490    0.8070 o         1 MOL     -0.503009
      4 H1          2.9660    1.9740    3.5460 hc        1 MOL      0.057533
      5 H2          3.9000    0.9310    2.4460 hc        1 MOL      0.057533
      6 H3          4.5640    2.5000    2.9630 hc        1 MOL      0.057533
      7 N1          3.3760    3.9040    1.2210 n         1 MOL     -0.711766
      8 C3          2.8220    4.7770    0.1980 c3        1 MOL      0.043701
      9 C4          1.3520    4.8230    0.2510 c         1 MOL      0.817707
     10 O2          0.6370    4.6750   -0.7250 o         1 MOL     -0.523092
     11 C5          3.4170    4.3210   -1.1700 c3        1 MOL     -0.903996
     12 C6          4.9310    4.0140   -1.1110 c         1 MOL      1.387921
     13 O3          5.7480    4.9740   -1.0420 o         1 MOL     -0.945304
     14 O4          5.3590    2.8900   -1.0710 o         1 MOL     -0.945304
     15 H4          4.0990    4.3870    1.7410 hn        1 MOL      0.276157
     16 H5          3.1610    5.7610    0.5160 h1        1 MOL      0.101232
     17 H6          3.2290    5.2350   -1.7360 hc        1 MOL      0.240521
     18 H7          2.9710    3.3710   -1.4760 hc        1 MOL      0.240521
     19 N2          0.8430    4.9940    1.4790 n         1 MOL     -0.431299
     20 C7         -0.5900    5.3060    1.7090 c3        1 MOL     -0.711029
     21 C8         -1.0870    6.5780    0.9610 c         1 MOL      0.507706
     22 O5         -0.2790    7.4760    0.7640 o         1 MOL     -0.551262
     23 C9         -0.8770    5.3950    3.2240 c3        1 MOL      0.246293
     24 C10        -0.3370    6.6600    3.9830 c3        1 MOL      0.148340
     25 C11        -0.4620    4.1270    3.9960 c3        1 MOL     -0.201044
     26 C12        -0.7940    6.7910    5.4200 c3        1 MOL     -0.431872
     27 H8          1.4560    5.2310    2.2520 hn        1 MOL      0.320094
     28 H9         -1.1220    4.4160    1.3900 h1        1 MOL      0.309503
     29 H10        -1.9530    5.4010    3.3550 hc        1 MOL      0.048443
     30 H11        -0.6100    7.5400    3.4080 hc        1 MOL      0.004210
     31 H12         0.7480    6.6790    4.0180 hc        1 MOL      0.004210
     32 H13         0.6290    4.1060    3.9700 hc        1 MOL      0.041399
     33 H14        -0.7910    4.1350    5.0330 hc        1 MOL      0.041399
     34 H15        -0.9030    3.2570    3.5110 hc        1 MOL      0.041399
     35 H16        -0.4670    5.9090    5.9620 hc        1 MOL      0.093819
     36 H17        -0.5150    7.7950    5.7310 hc        1 MOL      0.093819
     37 H18        -1.8940    6.7400    5.4220 hc        1 MOL      0.093819
     38 N3         -2.3600    6.6810    0.6460 n         1 MOL     -0.308370
     39 C13        -3.5190    5.7210    0.9190 c3        1 MOL      0.070164
     40 C14        -3.6030    4.5490    0.0030 c         1 MOL      0.520534
     41 O6         -4.0130    3.4520    0.3490 o         1 MOL     -0.595903
     42 C15        -4.8460    6.5520    1.0060 c3        1 MOL     -0.287491
     43 C16        -5.0250    7.5480   -0.0840 c         1 MOL      0.733200
     44 O7         -5.8470    8.4930    0.1090 o         1 MOL     -0.712195
     45 O8         -4.2860    7.6060   -1.1240 o         1 MOL     -0.712195
     46 H19        -2.6850    7.4070    0.0260 hn        1 MOL      0.254390
     47 H20        -3.4110    5.4080    1.9600 h1        1 MOL      0.026424
     48 H21        -4.7220    7.1960    1.8830 hc        1 MOL      0.073010
     49 H22        -5.7040    5.9190    1.2310 hc        1 MOL      0.073010
     50 N4         -3.0410    4.7590   -1.1900 n         1 MOL     -0.287878
     51 C17        -3.2670    4.0290   -2.4370 c3        1 MOL     -0.152354
     52 C18        -4.7120    3.5420   -2.6830 c         1 MOL      0.526669
     53 O9         -5.6440    4.2280   -2.3030 o         1 MOL     -0.501272
     54 H23        -2.7760    5.7340   -1.3010 hn        1 MOL      0.287883
     55 H24        -2.6480    3.1220   -2.4330 h1        1 MOL      0.093753
     56 H25        -2.9370    4.6120   -3.2930 h1        1 MOL      0.093753
     57 N5         -4.9510    2.2670   -3.2120 n         1 MOL     -0.397453
     58 C19        -6.3050    1.6470   -3.4800 c3        1 MOL      0.002795
     59 C20        -7.0700    1.3590   -2.1210 c         1 MOL      0.390238
     60 O10        -8.2890    1.1870   -2.2060 o         1 MOL     -0.551481
     61 C21        -6.1650    0.3560   -4.3060 c3        1 MOL     -0.211502
     62 C22        -5.1310   -0.6310   -3.7770 c         1 MOL      0.607338
     63 O11        -3.8730   -0.5220   -3.9120 o         1 MOL     -0.647962
     64 O12        -5.5580   -1.4230   -2.9080 o         1 MOL     -0.647962
     65 H26        -4.1310    1.7580   -3.5000 hn        1 MOL      0.214496
     66 H27        -6.8480    2.3720   -4.0840 h1        1 MOL      0.097856
     67 H28        -5.7970    0.6470   -5.2890 hc        1 MOL      0.044167
     68 H29        -7.1090   -0.1610   -4.4770 hc        1 MOL      0.044167
     69 N6         -6.4290    1.1570   -0.9650 n         1 MOL     -0.037458
     70 C23        -7.1840    0.8510    0.2700 c3        1 MOL     -0.321942
     71 C24        -7.6240   -0.5710    0.4330 c         1 MOL      0.554635
     72 O13        -8.3660   -0.8710    1.3880 o         1 MOL     -0.607768
     73 H30        -5.4270    1.2540   -0.8860 hn        1 MOL      0.266549
     74 H31        -8.1060    1.4150    0.2850 h1        1 MOL      0.139625
     75 H32        -6.6090    1.1070    1.1560 h1        1 MOL      0.139625
     76 N7         -7.0920   -1.5370   -0.3050 n         1 MOL     -0.096811
     77 C25        -7.3850   -2.9550   -0.4380 c3        1 MOL      0.053372
     78 C26        -7.1160   -3.8580    0.7840 c         1 MOL      0.586949
     79 O14        -7.8400   -4.7520    1.0760 o         1 MOL     -0.516499
     80 C27        -8.7690   -3.1720   -1.1900 c3        1 MOL     -0.110874
     81 C28        -8.8230   -2.3420   -2.4960 c3        1 MOL     -0.033785
     82 C29        -9.9730   -2.8030   -3.3730 c         1 MOL      0.587951
     83 N8        -10.5320   -1.8850   -4.0950 n         1 MOL     -0.754910
     84 O15       -10.4610   -3.9250   -3.3880 o         1 MOL     -0.587680
     85 H33        -6.5430   -1.0910   -1.0340 hn        1 MOL      0.046184
     86 H34        -6.5850   -3.3100   -1.0880 h1        1 MOL      0.061406
     87 H35        -9.5880   -2.8370   -0.5520 hc        1 MOL      0.042361
     88 H36        -8.8890   -4.2440   -1.3940 hc        1 MOL      0.042361
     89 H37        -7.9320   -2.4690   -3.1040 hc        1 MOL      0.062481
     90 H38        -8.9790   -1.3260   -2.1240 hc        1 MOL      0.062481
     91 H39       -10.0570   -1.0030   -4.2520 hn        1 MOL      0.337739
     92 H40       -11.3500   -2.1700   -4.5940 hn        1 MOL      0.337739
     93 N9         -6.0650   -3.4240    1.5400 n         1 MOL     -0.510144
     94 C30        -5.8030   -3.8790    2.9270 c3        1 MOL     -0.160461
     95 C31        -4.3410   -4.2160    3.1600 c         1 MOL      0.618525
     96 O16        -3.9920   -4.9600    4.0680 o         1 MOL     -0.572963
     97 C32        -6.2250   -2.8530    3.9740 c3        1 MOL      0.161725
     98 C33        -5.7450   -1.3860    3.6170 c3        1 MOL     -0.251409
     99 C34        -7.7850   -2.9320    4.1310 c3        1 MOL     -0.251409
    100 H41        -5.4620   -2.7090    1.1520 hn        1 MOL      0.261919
    101 H42        -6.3140   -4.8290    3.0800 h1        1 MOL      0.143721
    102 H43        -5.8360   -3.0010    4.9860 hc        1 MOL      0.001807
    103 H44        -6.2280   -0.9680    2.7300 hc        1 MOL      0.066071
    104 H45        -5.9470   -0.7020    4.4320 hc        1 MOL      0.066071
    105 H46        -4.6750   -1.4600    3.4240 hc        1 MOL      0.066071
    106 H47        -8.0620   -2.1800    4.8750 hc        1 MOL      0.066071
    107 H48        -8.3490   -2.8490    3.2100 hc        1 MOL      0.066071
    108 H49        -8.0380   -3.8630    4.6470 hc        1 MOL      0.066071
    109 N10        -3.4360   -3.6360    2.2960 n         1 MOL     -0.451643
    110 C35        -1.9580   -3.5000    2.3900 c3        1 MOL      0.162126
    111 C36        -1.2070   -3.6220    1.0590 c         1 MOL      0.523924
    112 O17        -1.7360   -3.7140   -0.0400 o         1 MOL     -0.533460
    113 C37        -1.8100   -2.1550    3.1360 c3        1 MOL     -0.195853
    114 C38        -0.4640   -1.8910    3.8840 c         1 MOL      0.561375
    115 N11        -0.5100   -0.8660    4.6460 n         1 MOL     -0.698367
    116 O18         0.5460   -2.5920    3.7050 o         1 MOL     -0.529602
    117 H50        -3.8590   -3.1830    1.4930 hn        1 MOL      0.240711
    118 H51        -1.6220   -4.2960    3.0520 h1        1 MOL      0.071685
    119 H52        -2.6330   -2.0570    3.8450 hc        1 MOL      0.067031
    120 H53        -2.0790   -1.2760    2.5470 hc        1 MOL      0.067031
    121 H54        -1.4070   -0.4440    4.7970 hn        1 MOL      0.347936
    122 H55         0.2680   -0.8220    5.2940 hn        1 MOL      0.347936
    123 N12         0.0990   -3.5580    1.1710 n         1 MOL     -0.611783
    124 C39         0.9720   -3.4410   -0.0260 c3        1 MOL      0.400106
    125 C40         2.3840   -4.1280    0.2290 c         1 MOL      0.366341
    126 O19         2.9490   -3.8880    1.2640 o         1 MOL     -0.545781
    127 C41         1.0890   -2.0080   -0.5400 c3        1 MOL     -0.089099
    128 C42         2.0580   -1.8090   -1.6240 ca        1 MOL      0.007780
    129 C43         3.2430   -1.1890   -1.2330 ca        1 MOL     -0.123401
    130 C44         1.8670   -2.2550   -2.9290 ca        1 MOL     -0.123401
    131 C45         4.2460   -0.8870   -2.1450 ca        1 MOL     -0.230213
    132 C46         2.8780   -2.0560   -3.8560 ca        1 MOL     -0.230213
    133 C47         4.0160   -1.2790   -3.4470 ca        1 MOL      0.328297
    134 O20         4.9390   -1.0660   -4.3300 oh        1 MOL     -0.545824
    135 H56         0.4910   -3.3010    2.0630 hn        1 MOL      0.324537
    136 H57         0.5170   -4.0600   -0.8000 h1        1 MOL     -0.012204
    137 H58         1.2590   -1.3710    0.3240 hc        1 MOL      0.061415
    138 H59         0.0850   -1.7080   -0.8460 hc        1 MOL      0.061415
    139 H60         3.3400   -0.9230   -0.1950 ha        1 MOL      0.116474
    140 H61         1.0380   -2.9110   -3.1570 ha        1 MOL      0.116474
    141 H62         5.1370   -0.3990   -1.7710 ha        1 MOL      0.147728
    142 H63         2.7630   -2.4110   -4.8680 ha        1 MOL      0.147728
    143 H64         5.6960   -0.6720   -3.9010 ho        1 MOL      0.429853
    144 N13         2.8670   -4.9130   -0.7490 n         1 MOL     -0.378076
    145 C48         4.1690   -5.6800   -0.7770 c3        1 MOL      0.187003
    146 C49         4.9550   -5.3100   -2.0550 c         1 MOL      0.448378
    147 O21         4.5960   -5.6840   -3.1330 o         1 MOL     -0.534121
    148 C50         3.9370   -7.2010   -0.4730 c3        1 MOL     -0.028635
    149 C51         3.0480   -7.4630    0.7580 c3        1 MOL     -0.196014
    150 C52         2.7730   -8.9660    0.9490 c         1 MOL      0.689718
    151 O22         2.7530   -9.5090    2.0550 o         1 MOL     -0.654366
    152 O23         2.3140   -9.6750    0.0100 o         1 MOL     -0.654366
    153 H65         2.3620   -4.9340   -1.6230 hn        1 MOL      0.259717
    154 H66         4.7700   -5.4840    0.1090 h1        1 MOL      0.070286
    155 H67         4.8990   -7.6680   -0.2740 hc        1 MOL      0.001879
    156 H68         3.5490   -7.6800   -1.3750 hc        1 MOL      0.001879
    157 H69         2.1420   -6.8860    0.5810 hc        1 MOL      0.051589
    158 H70         3.6070   -7.0650    1.6070 hc        1 MOL      0.051589
    159 N14         5.9590   -4.4780   -1.9750 n         1 MOL     -0.414009
    160 C53         6.2830   -3.5300   -0.8320 c3        1 MOL     -0.015707
    161 C54         6.9400   -4.2160    0.3690 c         1 MOL      0.491861
    162 O24         7.6900   -5.2280    0.2120 o         1 MOL     -0.558623
    163 C55         7.2390   -2.5020   -1.4510 c3        1 MOL     -0.058566
    164 C56         7.5030   -1.3400   -0.3830 c3        1 MOL     -0.177166
    165 C57         8.5410   -0.2320   -0.7590 c         1 MOL      0.718070
    166 O25         8.1060    0.8240   -1.2510 o         1 MOL     -0.688641
    167 O26         9.7420   -0.5470   -0.5340 o         1 MOL     -0.688641
    168 H71         6.6360   -4.4770   -2.7300 hn        1 MOL      0.296905
    169 H72         5.4110   -2.9620   -0.5010 h1        1 MOL      0.009502
    170 H73         6.8760   -2.0210   -2.3570 hc        1 MOL      0.028274
    171 H74         8.1710   -3.0140   -1.6940 hc        1 MOL      0.028274
    172 H75         7.8490   -1.8920    0.4950 hc        1 MOL      0.029622
    173 H76         6.5360   -0.8650   -0.2010 hc        1 MOL      0.029622
    174 N15         6.4210   -3.8270    1.5310 n         1 MOL     -0.118505
    175 C58         6.7810   -4.4030    2.8820 c3        1 MOL     -0.305820
    176 H77         6.0740   -4.0440    3.6300 h1        1 MOL      0.115832
    177 H78         6.7380   -5.4910    2.8360 h1        1 MOL      0.115832
    178 H79         7.7890   -4.0900    3.1540 h1        1 MOL      0.115832
    179 H80         6.0480   -2.8920    1.5310 hn        1 MOL      0.210291
    180 Ca1         7.7650    3.1630   -0.4340 Ca        1 MOL      1.735864
    181 O27         7.8690    1.5630    1.6300 oh        1 MOL     -0.864731
    182 H81         8.5620    1.5540    2.2930 ho        1 MOL      0.400867
    183 H82         7.2600    0.8840    1.9220 ho        1 MOL      0.400867
    184 O28         7.7350    3.2090   -3.1720 oh        1 MOL     -0.864731
    185 H83         7.4510    3.8970   -3.7670 ho        1 MOL      0.400867
    186 H84         8.5320    2.8590   -3.5680 ho        1 MOL      0.400867
    187 O29         9.3920    4.4080    1.4690 oh        1 MOL     -0.864731
    188 H85        10.0410    5.0200    1.1080 ho        1 MOL      0.400867
    189 H86         9.5740    4.3860    2.4040 ho        1 MOL      0.400867
    190 O30         9.3220    5.3630   -1.4990 oh        1 MOL     -0.864731
    191 H87         9.8440    5.9570   -0.9540 ho        1 MOL      0.400867
    192 H88         9.0320    5.9050   -2.2360 ho        1 MOL      0.400867
    193 O31        10.5290    2.8570   -0.8800 oh        1 MOL     -0.864731
    194 H89        10.6650    2.0490   -1.3580 ho        1 MOL      0.400867
    195 H90        11.3860    3.2660   -0.8550 ho        1 MOL      0.400867
@<TRIPOS>BOND
     1    1    2 1   
     2    1    4 1   
     3    1    5 1   
     4    1    6 1   
     5    2    3 2   
     6    2    7 1   
     7    7    8 1   
     8    7   15 1   
     9    8    9 1   
    10    8   11 1   
    11    8   16 1   
    12    9   10 2   
    13    9   19 1   
    14   11   12 1   
    15   11   17 1   
    16   11   18 1   
    17   12   13 1   
    18   12   14 1   
    19   19   20 1   
    20   19   27 1   
    21   20   21 1   
    22   20   23 1   
    23   20   28 1   
    24   21   22 2   
    25   21   38 1   
    26   23   24 1   
    27   23   25 1   
    28   23   29 1   
    29   24   26 1   
    30   24   30 1   
    31   24   31 1   
    32   25   32 1   
    33   25   33 1   
    34   25   34 1   
    35   26   35 1   
    36   26   36 1   
    37   26   37 1   
    38   38   39 1   
    39   38   46 1   
    40   39   40 1   
    41   39   42 1   
    42   39   47 1   
    43   40   41 2   
    44   40   50 1   
    45   42   43 1   
    46   42   48 1   
    47   42   49 1   
    48   43   44 1   
    49   43   45 1   
    50   50   51 1   
    51   50   54 1   
    52   51   52 1   
    53   51   55 1   
    54   51   56 1   
    55   52   53 2   
    56   52   57 1   
    57   57   58 1   
    58   57   65 1   
    59   58   59 1   
    60   58   61 1   
    61   58   66 1   
    62   59   60 2   
    63   59   69 1   
    64   61   62 1   
    65   61   67 1   
    66   61   68 1   
    67   62   63 1   
    68   62   64 1   
    69   69   70 1   
    70   69   73 1   
    71   70   71 1   
    72   70   74 1   
    73   70   75 1   
    74   71   72 2   
    75   71   76 1   
    76   76   77 1   
    77   76   85 1   
    78   77   78 1   
    79   77   80 1   
    80   77   86 1   
    81   78   79 2   
    82   78   93 1   
    83   80   81 1   
    84   80   87 1   
    85   80   88 1   
    86   81   82 1   
    87   81   89 1   
    88   81   90 1   
    89   82   83 1   
    90   82   84 2   
    91   83   91 1   
    92   83   92 1   
    93   93   94 1   
    94   93  100 1   
    95   94   95 1   
    96   94   97 1   
    97   94  101 1   
    98   95   96 2   
    99   95  109 1   
   100   97   98 1   
   101   97   99 1   
   102   97  102 1   
   103   98  103 1   
   104   98  104 1   
   105   98  105 1   
   106   99  106 1   
   107   99  107 1   
   108   99  108 1   
   109  109  110 1   
   110  109  117 1   
   111  110  111 1   
   112  110  113 1   
   113  110  118 1   
   114  111  112 2   
   115  111  123 1   
   116  113  114 1   
   117  113  119 1   
   118  113  120 1   
   119  114  115 1   
   120  114  116 2   
   121  115  121 1   
   122  115  122 1   
   123  123  124 1   
   124  123  135 1   
   125  124  125 1   
   126  124  127 1   
   127  124  136 1   
   128  125  126 2   
   129  125  144 1   
   130  127  128 1   
   131  127  137 1   
   132  127  138 1   
   133  128  129 ar  
   134  128  130 ar  
   135  129  131 ar  
   136  129  139 1   
   137  130  132 ar  
   138  130  140 1   
   139  131  133 ar  
   140  131  141 1   
   141  132  133 ar  
   142  132  142 1   
   143  133  134 1   
   144  134  143 1   
   145  144  145 1   
   146  144  153 1   
   147  145  146 1   
   148  145  148 1   
   149  145  154 1   
   150  146  147 2   
   151  146  159 1   
   152  148  149 1   
   153  148  155 1   
   154  148  156 1   
   155  149  150 1   
   156  149  157 1   
   157  149  158 1   
   158  150  151 1   
   159  150  152 1   
   160  159  160 1   
   161  159  168 1   
   162  160  161 1   
   163  160  163 1   
   164  160  169 1   
   165  161  162 2   
   166  161  174 1   
   167  163  164 1   
   168  163  170 1   
   169  163  171 1   
   170  164  165 1   
   171  164  172 1   
   172  164  173 1   
   173  165  166 1   
   174  165  167 1   
   175  174  175 1   
   176  174  179 1   
   177  175  176 1   
   178  175  177 1   
   179  175  178 1   
   180  181  182 1   
   181  181  183 1   
   182  184  185 1   
   183  184  186 1   
   184  187  188 1   
   185  187  189 1   
   186  190  191 1   
   187  190  192 1   
   188  193  194 1   
   189  193  195 1   
@<TRIPOS>SUBSTRUCTURE
     1 MOL         1 TEMP              0 ****  ****    0 ROOT
