@<TRIPOS>MOLECULE
MOL
  195   189     1     0     0
SMALL
resp


@<TRIPOS>ATOM
      1 C1         10.5950   -5.8820    3.0020 c3        1 MOL     -0.413353
      2 C2         10.5510   -4.4810    2.4450 c         1 MOL      0.590806
      3 O1         11.2960   -3.6120    2.7910 o         1 MOL     -0.577485
      4 H1         10.3620   -5.8570    4.0670 hc        1 MOL      0.111636
      5 H2          9.8640   -6.5030    2.4850 hc        1 MOL      0.111636
      6 H3         11.5930   -6.2990    2.8590 hc        1 MOL      0.111636
      7 N1          9.6720   -4.1960    1.4770 n         1 MOL     -0.101751
      8 C3          9.5740   -2.9680    0.6860 c3        1 MOL     -0.393417
      9 C4          8.3190   -2.1030    0.9660 c         1 MOL      0.398743
     10 O2          7.2670   -2.6510    1.3780 o         1 MOL     -0.510091
     11 C5          9.6130   -3.3470   -0.7940 c3        1 MOL      0.430422
     12 C6          8.9800   -4.7220   -1.0870 c         1 MOL      0.454561
     13 O3          8.0680   -5.1730   -0.3720 o         1 MOL     -0.655113
     14 O4          9.4640   -5.2140   -2.0950 o         1 MOL     -0.655113
     15 H4          8.9630   -4.8960    1.2900 hn        1 MOL      0.111704
     16 H5         10.4950   -2.4000    0.8020 h1        1 MOL      0.113141
     17 H6         10.6220   -3.3820   -1.1990 hc        1 MOL     -0.069723
     18 H7          9.1540   -2.5210   -1.3300 hc        1 MOL     -0.069723
     19 N2          8.4230   -0.7950    0.7270 n         1 MOL     -0.270421
     20 C7          7.3870    0.2560    1.1180 c3        1 MOL      0.263661
     21 C8          6.6390    0.7920   -0.1300 c         1 MOL      0.443120
     22 O5          6.7210    1.9570   -0.4830 o         1 MOL     -0.540540
     23 C9          8.1890    1.4000    1.9340 c3        1 MOL     -0.438597
     24 C10         7.2700    2.4410    2.7460 c3        1 MOL      0.129800
     25 C11         8.1170    3.5620    3.4730 c3        1 MOL     -0.107841
     26 C12         7.3050    4.7500    3.9090 c3        1 MOL     -0.083107
     27 N3          7.0350    4.6790    5.3640 n4        1 MOL     -0.358936
     28 H8          9.2860   -0.4150    0.3650 hn        1 MOL      0.262813
     29 H9          6.6600   -0.2200    1.7810 h1        1 MOL      0.011993
     30 H10         8.7460    1.9750    1.1940 hc        1 MOL      0.124869
     31 H11         8.9380    0.9270    2.5520 hc        1 MOL      0.124869
     32 H12         6.7130    1.8970    3.5170 hc        1 MOL      0.023209
     33 H13         6.5750    2.9370    2.0720 hc        1 MOL      0.023209
     34 H14         8.8630    3.9080    2.7520 hc        1 MOL      0.068408
     35 H15         8.6930    3.2820    4.3560 hc        1 MOL      0.068408
     36 H16         6.3880    4.7420    3.3280 hx        1 MOL      0.144772
     37 H17         7.8130    5.6470    3.5650 hx        1 MOL      0.144772
     38 H18         7.8530    4.8740    5.9320 hn        1 MOL      0.268414
     39 H19         6.4140    5.4320    5.6030 hn        1 MOL      0.268414
     40 H20         6.6110    3.7950    5.6180 hn        1 MOL      0.268414
     41 N4          5.9690   -0.1370   -0.7290 n         1 MOL     -0.754680
     42 C13         5.1890    0.0650   -1.9490 c3        1 MOL      1.109178
     43 C14         3.7000   -0.1770   -1.5730 c         1 MOL      0.255304
     44 O6          3.3760   -1.0620   -0.7490 o         1 MOL     -0.513269
     45 C15         5.6750   -0.8290   -3.1010 c3        1 MOL     -0.695965
     46 C16         6.0740   -2.2490   -2.7820 c         1 MOL      0.887080
     47 O7          6.2480   -3.0740   -3.7370 o         1 MOL     -0.709665
     48 O8          5.8320   -2.7380   -1.6480 o         1 MOL     -0.709665
     49 H21         6.0130   -1.1120   -0.4760 hn        1 MOL      0.280643
     50 H22         5.3380    1.0330   -2.4160 h1        1 MOL     -0.117987
     51 H23         6.5440   -0.3270   -3.5460 hc        1 MOL      0.137685
     52 H24         4.8740   -0.9490   -3.8260 hc        1 MOL      0.137685
     53 N5          2.7490    0.4990   -2.2060 n         1 MOL     -0.424033
     54 C17         2.9220    1.5260   -3.2440 c3        1 MOL      0.075464
     55 C18         3.4570    2.7860   -2.5150 c         1 MOL      0.426296
     56 O9          3.7790    2.8290   -1.3380 o         1 MOL     -0.400621
     57 H25         1.8060    0.3160   -1.9110 hn        1 MOL      0.339514
     58 H26         1.9900    1.7140   -3.7620 h1        1 MOL      0.031785
     59 H27         3.6320    1.0560   -3.9310 h1        1 MOL      0.031785
     60 N6          3.6410    3.8210   -3.3370 n         1 MOL     -0.286007
     61 C19         3.9140    5.1540   -2.9760 c3        1 MOL     -0.100669
     62 C20         2.8340    5.8080   -2.0050 c         1 MOL      0.474704
     63 O10         1.8430    6.4290   -2.3830 o         1 MOL     -0.494333
     64 C21         4.0440    6.0530   -4.2280 c3        1 MOL     -0.199140
     65 C22         4.7130    7.3840   -3.8130 c         1 MOL      0.728643
     66 O11         4.9110    8.2130   -4.7200 o         1 MOL     -0.686674
     67 O12         5.0180    7.6320   -2.5730 o         1 MOL     -0.686674
     68 H28         3.7290    3.6700   -4.3300 hn        1 MOL      0.247101
     69 H29         4.8840    5.0770   -2.4880 h1        1 MOL      0.078285
     70 H30         3.0560    6.2700   -4.6360 hc        1 MOL      0.056756
     71 H31         4.6470    5.5770   -4.9990 hc        1 MOL      0.056756
     72 N7          2.9110    5.5400   -0.7020 n         1 MOL     -0.336477
     73 C23         1.8570    5.7980    0.2700 c3        1 MOL      0.164861
     74 C24         1.2260    4.6490    1.0520 c         1 MOL      0.332620
     75 O13         0.3150    4.8250    1.8780 o         1 MOL     -0.544894
     76 H32         3.7370    5.0310   -0.4210 hn        1 MOL      0.191129
     77 H33         1.0550    6.3750   -0.1960 h1        1 MOL      0.035160
     78 H34         2.2110    6.4850    1.0420 h1        1 MOL      0.035160
     79 N8          1.5810    3.4030    0.7070 n         1 MOL     -0.198650
     80 C25         1.2440    2.1210    1.4350 c3        1 MOL      0.069575
     81 C26         0.3710    1.3050    0.5280 c         1 MOL      0.535750
     82 O14         0.2820    1.5860   -0.6680 o         1 MOL     -0.536245
     83 C27         2.5000    1.2620    1.6560 c3        1 MOL      0.608096
     84 C28         3.6870    2.1220    2.1750 c3        1 MOL     -0.426338
     85 O15         2.1830    0.1770    2.4720 oh        1 MOL     -0.677622
     86 H35         2.0860    3.2240   -0.1530 hn        1 MOL      0.152471
     87 H36         0.7930    2.3380    2.3980 h1        1 MOL      0.059301
     88 H37         2.8400    0.9390    0.6720 h1        1 MOL     -0.138238
     89 H38         2.9750   -0.3490    2.5050 ho        1 MOL      0.407435
     90 H39         3.5690    2.2800    3.2510 hc        1 MOL      0.068805
     91 H40         4.5960    1.6410    1.8260 hc        1 MOL      0.068805
     92 H41         3.7770    3.1410    1.7770 hc        1 MOL      0.068805
     93 N9         -0.1510    0.2260    1.0630 n         1 MOL     -0.467894
     94 C29        -0.9230   -0.8470    0.3840 c3        1 MOL     -0.204017
     95 C30        -2.3160   -0.4820   -0.0820 c         1 MOL      0.562271
     96 O16        -2.9270   -1.1130   -0.9590 o         1 MOL     -0.555057
     97 C31        -0.8370   -2.1480    1.3390 c3        1 MOL      0.400055
     98 C32        -1.4880   -1.9210    2.7070 c3        1 MOL     -0.096579
     99 C33         0.6010   -2.6890    1.4770 c3        1 MOL     -0.456728
    100 C34        -1.8720   -3.2210    3.4350 c3        1 MOL     -0.115543
    101 H42         0.0510    0.0590    2.0390 hn        1 MOL      0.245701
    102 H43        -0.5020   -1.1720   -0.5680 h1        1 MOL      0.121017
    103 H44        -1.3710   -2.9430    0.8240 hc        1 MOL     -0.032796
    104 H45        -2.4350   -1.4380    2.4810 hc        1 MOL      0.048173
    105 H46        -0.8330   -1.3410    3.3640 hc        1 MOL      0.048173
    106 H47         0.6780   -3.5050    2.1960 hc        1 MOL      0.103155
    107 H48         0.8960   -3.1050    0.5240 hc        1 MOL      0.103155
    108 H49         1.2750   -1.9570    1.9330 hc        1 MOL      0.103155
    109 H50        -2.8410   -3.4900    3.0430 hc        1 MOL      0.032674
    110 H51        -1.1800   -4.0700    3.3680 hc        1 MOL      0.032674
    111 H52        -1.9520   -3.0380    4.5030 hc        1 MOL      0.032674
    112 N10        -2.8790    0.5480    0.5640 n         1 MOL     -0.407244
    113 C35        -4.1230    1.2050    0.1080 c3        1 MOL      0.074641
    114 C36        -4.8850    1.8650    1.2880 c         1 MOL      0.538020
    115 O17        -4.2990    2.5100    2.1420 o         1 MOL     -0.501673
    116 C37        -3.8190    2.3020   -0.9160 c3        1 MOL      0.282897
    117 C38        -3.2610    1.6430   -2.2130 c3        1 MOL     -0.352837
    118 O18        -4.9430    2.9770   -1.1990 oh        1 MOL     -0.626985
    119 H53        -2.3390    1.0090    1.2690 hn        1 MOL      0.228482
    120 H54        -4.7840    0.4560   -0.3410 h1        1 MOL      0.081176
    121 H55        -3.0220    2.9220   -0.4960 h1        1 MOL      0.030717
    122 H56        -4.6480    3.7350   -1.7070 ho        1 MOL      0.413187
    123 H57        -3.2750    2.3990   -3.0000 hc        1 MOL      0.103857
    124 H58        -2.2500    1.2500   -2.0790 hc        1 MOL      0.103857
    125 H59        -3.9170    0.8830   -2.6120 hc        1 MOL      0.103857
    126 N11        -6.2150    1.6430    1.2570 n         1 MOL     -0.558756
    127 C39        -7.1670    2.1070    2.3070 c3        1 MOL      0.015621
    128 C40        -8.3970    1.2560    2.3680 c         1 MOL      0.583190
    129 O19        -8.7810    1.0860    3.5520 o         1 MOL     -0.560242
    130 C41        -7.5900    3.5630    1.9080 c3        1 MOL      0.237214
    131 C42        -8.7010    4.1640    2.8140 c3        1 MOL     -0.477264
    132 O20        -8.2320    3.5920    0.7060 oh        1 MOL     -0.542994
    133 H60        -6.6080    1.1430    0.4800 hn        1 MOL      0.280423
    134 H61        -6.6760    2.1020    3.2860 h1        1 MOL      0.133534
    135 H62        -6.7300    4.2190    1.9100 h1        1 MOL      0.075831
    136 H63        -7.6990    3.9010   -0.0280 ho        1 MOL      0.364889
    137 H64        -9.2610    4.8490    2.1850 hc        1 MOL      0.138553
    138 H65        -9.3120    3.3750    3.2680 hc        1 MOL      0.138553
    139 H66        -8.2590    4.6360    3.6880 hc        1 MOL      0.138553
    140 N12        -8.9570    0.7570    1.2720 n         1 MOL     -0.439875
    141 C43       -10.1500   -0.2040    1.2080 c3        1 MOL      0.023819
    142 C44       -10.0840   -1.0720   -0.0490 c         1 MOL      0.427071
    143 O21        -9.8070   -0.4750   -1.1210 o         1 MOL     -0.521611
    144 C45       -11.5070    0.5310    1.3160 c3        1 MOL     -0.213425
    145 C46       -12.0020    1.1760   -0.0150 c3        1 MOL     -0.099508
    146 C47       -11.2770    2.3750   -0.5750 c3        1 MOL      0.013248
    147 C48       -11.4320    3.5840    0.3120 c3        1 MOL     -0.041445
    148 N13       -10.6530    4.7260   -0.1600 n4        1 MOL     -0.438356
    149 H67        -8.4610    1.0230    0.4360 hn        1 MOL      0.309726
    150 H68       -10.0570   -0.9210    2.0290 h1        1 MOL      0.084887
    151 H69       -11.5180    1.2290    2.1600 hc        1 MOL      0.106937
    152 H70       -12.2450   -0.2050    1.6230 hc        1 MOL      0.106937
    153 H71       -12.9800    1.5690    0.2550 hc        1 MOL      0.068453
    154 H72       -12.1810    0.3930   -0.7520 hc        1 MOL      0.068453
    155 H73       -11.7190    2.6120   -1.5450 hc        1 MOL      0.044608
    156 H74       -10.2230    2.1240   -0.6830 hc        1 MOL      0.044608
    157 H75       -11.1610    3.3130    1.3370 hx        1 MOL      0.101083
    158 H76       -12.4880    3.8580    0.3280 hx        1 MOL      0.101083
    159 H77        -9.7080    4.4150   -0.3640 hn        1 MOL      0.327312
    160 H78       -11.0020    5.0700   -1.0470 hn        1 MOL      0.327312
    161 H79       -10.7490    5.5600    0.3980 hn        1 MOL      0.327312
    162 N14       -10.5140   -2.3390    0.0760 n         1 MOL     -0.344234
    163 C49       -10.8150   -3.1670   -1.0640 c3        1 MOL      0.304326
    164 C50        -9.5720   -3.8090   -1.7790 c         1 MOL      0.394959
    165 O22        -9.6000   -3.8480   -2.9920 o         1 MOL     -0.540062
    166 C51       -11.7130   -4.2690   -0.5530 c3        1 MOL     -0.038707
    167 C52       -12.4340   -5.0640   -1.6630 c3        1 MOL     -0.209372
    168 C53       -13.1200   -6.3210   -1.1670 c         1 MOL      0.696533
    169 O23       -12.6770   -7.4380   -1.5050 o         1 MOL     -0.654112
    170 O24       -14.0750   -6.3110   -0.3440 o         1 MOL     -0.654112
    171 H80       -10.8640   -2.6160    0.9850 hn        1 MOL      0.232726
    172 H81       -11.3720   -2.5740   -1.7850 h1        1 MOL      0.029893
    173 H82       -12.4260   -3.6900    0.0340 hc        1 MOL      0.012246
    174 H83       -11.1150   -4.9600    0.0370 hc        1 MOL      0.012246
    175 H84       -11.6860   -5.3260   -2.4150 hc        1 MOL      0.045082
    176 H85       -13.1140   -4.4160   -2.2090 hc        1 MOL      0.045082
    177 N15        -8.4330   -4.1140   -1.1810 n         1 MOL     -0.357449
    178 C54        -8.1050   -4.3120    0.2500 c3        1 MOL      0.082602
    179 H86        -7.6830   -3.3920    0.6560 h1        1 MOL      0.018690
    180 H87        -9.0110   -4.5680    0.7990 h1        1 MOL      0.018690
    181 H88        -7.3780   -5.1180    0.3490 h1        1 MOL      0.018690
    182 H89        -7.7590   -4.5910   -1.7650 hn        1 MOL      0.296713
    183 Ca1         5.5580   -5.0230   -0.5730 Ca        1 MOL      1.774240
    184 O25         3.7860   -3.2040    0.6020 oh        1 MOL     -0.954979
    185 H90         2.8690   -3.3760    0.8520 ho        1 MOL      0.452536
    186 H91         3.7420   -2.3820    0.1090 ho        1 MOL      0.452536
    187 O26         6.4280   -5.4550   -3.0160 oh        1 MOL     -0.954979
    188 H92         6.4260   -4.5880   -3.4370 ho        1 MOL      0.452536
    189 H93         7.0930   -5.9490   -3.4880 ho        1 MOL      0.452536
    190 O27         5.8450   -4.8910    2.1770 oh        1 MOL     -0.954979
    191 H94         6.1480   -5.3250    2.9800 ho        1 MOL      0.452536
    192 H95         6.0170   -3.9640    2.3310 ho        1 MOL      0.452536
    193 O28         3.5010   -4.6080   -2.1430 oh        1 MOL     -0.954979
    194 H96         3.3980   -4.6710   -3.0950 ho        1 MOL      0.452536
    195 H97         2.7200   -5.0420   -1.7900 ho        1 MOL      0.452536
@<TRIPOS>BOND
     1    1    2 1   
     2    1    4 1   
     3    1    5 1   
     4    1    6 1   
     5    2    3 2   
     6    2    7 1   
     7    7    8 1   
     8    7   15 1   
     9    8    9 1   
    10    8   11 1   
    11    8   16 1   
    12    9   10 2   
    13    9   19 1   
    14   11   12 1   
    15   11   17 1   
    16   11   18 1   
    17   12   13 1   
    18   12   14 1   
    19   19   20 1   
    20   19   28 1   
    21   20   21 1   
    22   20   23 1   
    23   20   29 1   
    24   21   22 2   
    25   21   41 1   
    26   23   24 1   
    27   23   30 1   
    28   23   31 1   
    29   24   25 1   
    30   24   32 1   
    31   24   33 1   
    32   25   26 1   
    33   25   34 1   
    34   25   35 1   
    35   26   27 1   
    36   26   36 1   
    37   26   37 1   
    38   27   38 1   
    39   27   39 1   
    40   27   40 1   
    41   41   42 1   
    42   41   49 1   
    43   42   43 1   
    44   42   45 1   
    45   42   50 1   
    46   43   44 2   
    47   43   53 1   
    48   45   46 1   
    49   45   51 1   
    50   45   52 1   
    51   46   47 1   
    52   46   48 1   
    53   53   54 1   
    54   53   57 1   
    55   54   55 1   
    56   54   58 1   
    57   54   59 1   
    58   55   56 2   
    59   55   60 1   
    60   60   61 1   
    61   60   68 1   
    62   61   62 1   
    63   61   64 1   
    64   61   69 1   
    65   62   63 2   
    66   62   72 1   
    67   64   65 1   
    68   64   70 1   
    69   64   71 1   
    70   65   66 1   
    71   65   67 1   
    72   72   73 1   
    73   72   76 1   
    74   73   74 1   
    75   73   77 1   
    76   73   78 1   
    77   74   75 2   
    78   74   79 1   
    79   79   80 1   
    80   79   86 1   
    81   80   81 1   
    82   80   83 1   
    83   80   87 1   
    84   81   82 2   
    85   81   93 1   
    86   83   84 1   
    87   83   85 1   
    88   83   88 1   
    89   84   90 1   
    90   84   91 1   
    91   84   92 1   
    92   85   89 1   
    93   93   94 1   
    94   93  101 1   
    95   94   95 1   
    96   94   97 1   
    97   94  102 1   
    98   95   96 2   
    99   95  112 1   
   100   97   98 1   
   101   97   99 1   
   102   97  103 1   
   103   98  100 1   
   104   98  104 1   
   105   98  105 1   
   106   99  106 1   
   107   99  107 1   
   108   99  108 1   
   109  100  109 1   
   110  100  110 1   
   111  100  111 1   
   112  112  113 1   
   113  112  119 1   
   114  113  114 1   
   115  113  116 1   
   116  113  120 1   
   117  114  115 2   
   118  114  126 1   
   119  116  117 1   
   120  116  118 1   
   121  116  121 1   
   122  117  123 1   
   123  117  124 1   
   124  117  125 1   
   125  118  122 1   
   126  126  127 1   
   127  126  133 1   
   128  127  128 1   
   129  127  130 1   
   130  127  134 1   
   131  128  129 2   
   132  128  140 1   
   133  130  131 1   
   134  130  132 1   
   135  130  135 1   
   136  131  137 1   
   137  131  138 1   
   138  131  139 1   
   139  132  136 1   
   140  140  141 1   
   141  140  149 1   
   142  141  142 1   
   143  141  144 1   
   144  141  150 1   
   145  142  143 2   
   146  142  162 1   
   147  144  145 1   
   148  144  151 1   
   149  144  152 1   
   150  145  146 1   
   151  145  153 1   
   152  145  154 1   
   153  146  147 1   
   154  146  155 1   
   155  146  156 1   
   156  147  148 1   
   157  147  157 1   
   158  147  158 1   
   159  148  159 1   
   160  148  160 1   
   161  148  161 1   
   162  162  163 1   
   163  162  171 1   
   164  163  164 1   
   165  163  166 1   
   166  163  172 1   
   167  164  165 2   
   168  164  177 1   
   169  166  167 1   
   170  166  173 1   
   171  166  174 1   
   172  167  168 1   
   173  167  175 1   
   174  167  176 1   
   175  168  169 1   
   176  168  170 1   
   177  177  178 1   
   178  177  182 1   
   179  178  179 1   
   180  178  180 1   
   181  178  181 1   
   182  184  185 1   
   183  184  186 1   
   184  187  188 1   
   185  187  189 1   
   186  190  191 1   
   187  190  192 1   
   188  193  194 1   
   189  193  195 1   
@<TRIPOS>SUBSTRUCTURE
     1 MOL         1 TEMP              0 ****  ****    0 ROOT
