@<TRIPOS>MOLECULE
MOL
  186   183     1     0     0
SMALL
resp


@<TRIPOS>ATOM
      1 C1        -11.7430    4.6260    3.3240 c3        1 MOL     -0.640372
      2 C2        -11.3340    3.9390    2.0290 c         1 MOL      0.776810
      3 O1        -11.7170    2.7770    1.8660 o         1 MOL     -0.570215
      4 H1        -11.3780    5.6540    3.3210 hc        1 MOL      0.169278
      5 H2        -12.8290    4.6270    3.4090 hc        1 MOL      0.169278
      6 H3        -11.3130    4.0910    4.1710 hc        1 MOL      0.169278
      7 N1        -10.6260    4.5990    1.0500 n         1 MOL     -0.370841
      8 C3        -10.3050    4.0550   -0.3110 c3        1 MOL     -0.537271
      9 C4         -9.3700    2.7960   -0.2110 c         1 MOL      0.151050
     10 O2         -8.4470    2.7320    0.6240 o         1 MOL     -0.409428
     11 C5         -9.7140    5.0750   -1.2010 c3        1 MOL      0.389168
     12 C6         -8.7030    6.0610   -0.6190 c         1 MOL      0.596997
     13 O3         -7.5790    5.6570   -0.2170 o         1 MOL     -0.711314
     14 O4         -9.1160    7.1980   -0.4680 o         1 MOL     -0.711314
     15 H4        -10.3040    5.5300    1.2530 hn        1 MOL      0.289206
     16 H5        -11.2420    3.7610   -0.7960 h1        1 MOL      0.196267
     17 H6        -10.5140    5.6660   -1.6560 hc        1 MOL     -0.018668
     18 H7         -9.2320    4.5890   -2.0520 hc        1 MOL     -0.018668
     19 N2         -9.6440    1.6720   -0.9280 n         1 MOL     -0.020395
     20 C7         -9.1490    0.3030   -0.7170 c3        1 MOL      0.150127
     21 C8         -7.7090    0.0060   -1.0880 c         1 MOL      0.213892
     22 O5         -7.3930   -0.9780   -1.7600 o         1 MOL     -0.428144
     23 C9        -10.2530   -0.6380   -1.3270 c3        1 MOL     -0.328146
     24 C10       -11.6310   -0.4020   -0.7080 c3        1 MOL      0.048600
     25 C11       -12.6810   -0.6560   -1.7150 c3        1 MOL      0.004485
     26 C12       -14.0020   -0.6180   -1.0740 c3        1 MOL      0.022314
     27 N3        -14.2920   -1.8350   -0.3110 n4        1 MOL     -0.317148
     28 H8        -10.2990    1.7820   -1.6820 hn        1 MOL      0.195812
     29 H9         -9.2430    0.0400    0.3350 h1        1 MOL      0.085783
     30 H10        -9.9940   -1.6790   -1.1280 hc        1 MOL      0.128340
     31 H11       -10.2900   -0.4080   -2.3930 hc        1 MOL      0.128340
     32 H12       -11.7000    0.5920   -0.2670 hc        1 MOL      0.009188
     33 H13       -11.7910   -1.1300    0.0920 hc        1 MOL      0.009188
     34 H14       -12.4690   -1.5890   -2.2470 hc        1 MOL      0.028799
     35 H15       -12.6760    0.1340   -2.4670 hc        1 MOL      0.028799
     36 H16       -14.7990   -0.3760   -1.7830 hx        1 MOL      0.076228
     37 H17       -13.9670    0.2400   -0.4050 hx        1 MOL      0.076228
     38 H18       -15.2350   -1.8750    0.0280 hn        1 MOL      0.289978
     39 H19       -14.2790   -2.6410   -0.9370 hn        1 MOL      0.289978
     40 H20       -13.6820   -1.9770    0.4800 hn        1 MOL      0.289978
     41 N4         -6.8110    0.8830   -0.6360 n         1 MOL      0.003112
     42 C13        -5.3810    0.7200   -0.7420 c3        1 MOL     -0.018226
     43 C14        -4.7140    1.1650    0.5210 c         1 MOL      0.410365
     44 O6         -5.0980    2.1220    1.2390 o         1 MOL     -0.621597
     45 C15        -4.8890    1.5750   -1.9330 c3        1 MOL     -0.223682
     46 C16        -5.1680    3.1140   -1.9620 c         1 MOL      0.615815
     47 O7         -4.5290    3.8130   -2.7660 o         1 MOL     -0.667262
     48 O8         -5.9690    3.6100   -1.1510 o         1 MOL     -0.667262
     49 H21        -7.2060    1.6770   -0.1420 hn        1 MOL      0.110378
     50 H22        -5.0680   -0.2770   -1.0490 h1        1 MOL      0.076715
     51 H23        -5.3920    1.1160   -2.7770 hc        1 MOL      0.098044
     52 H24        -3.8060    1.5020   -2.0140 hc        1 MOL      0.098044
     53 N5         -3.6020    0.4210    0.8710 n         1 MOL     -0.390975
     54 C17        -3.0140   -0.7800    0.2350 c3        1 MOL      0.053285
     55 C18        -3.8980   -2.0170    0.3160 c         1 MOL      0.658151
     56 O9         -4.8190   -2.1200    1.1160 o         1 MOL     -0.561782
     57 H25        -3.2220    0.7190    1.7640 hn        1 MOL      0.282323
     58 H26        -2.0510   -1.0050    0.6980 h1        1 MOL      0.023832
     59 H27        -2.8790   -0.5760   -0.8290 h1        1 MOL      0.023832
     60 N6         -3.8110   -2.9390   -0.6580 n         1 MOL     -0.537308
     61 C19        -4.7160   -4.0430   -0.9550 c3        1 MOL      0.061559
     62 C20        -3.9480   -5.3050   -0.4810 c         1 MOL      0.370349
     63 O10        -4.0700   -5.7430    0.6790 o         1 MOL     -0.481744
     64 C21        -5.2270   -4.0260   -2.4060 c3        1 MOL     -0.000151
     65 C22        -6.2170   -5.1540   -2.7740 c         1 MOL      0.561135
     66 O11        -6.5540   -5.9880   -1.9070 o         1 MOL     -0.622686
     67 O12        -6.8670   -5.0010   -3.8620 o         1 MOL     -0.622686
     68 H28        -3.0030   -2.8450   -1.2520 hn        1 MOL      0.286778
     69 H29        -5.6430   -3.9280   -0.3860 h1        1 MOL      0.148370
     70 H30        -4.3490   -4.0130   -3.0390 hc        1 MOL     -0.033909
     71 H31        -5.7740   -3.1080   -2.5920 hc        1 MOL     -0.033909
     72 N7         -3.0800   -5.8090   -1.3340 n         1 MOL     -0.192657
     73 C23        -2.2330   -6.9800   -1.0190 c3        1 MOL     -0.495605
     74 C24        -1.2670   -6.6700    0.1640 c         1 MOL      0.617844
     75 O13        -0.9750   -7.5280    0.9880 o         1 MOL     -0.554474
     76 H32        -2.9410   -5.3420   -2.2190 hn        1 MOL      0.268015
     77 H33        -1.6660   -7.4020   -1.8420 h1        1 MOL      0.212329
     78 H34        -2.8790   -7.7850   -0.6720 h1        1 MOL      0.212329
     79 N8         -0.7590   -5.4260    0.1750 n         1 MOL     -0.201117
     80 C25         0.3460   -4.9620    1.0130 c3        1 MOL     -0.491149
     81 C26         0.7460   -3.5980    0.4070 c         1 MOL      0.710785
     82 O14         0.0440   -2.9180   -0.2770 o         1 MOL     -0.531155
     83 C27        -0.0580   -4.8380    2.5640 c3        1 MOL      0.516155
     84 C28        -1.2050   -3.9030    2.8540 c3        1 MOL     -0.091074
     85 O15        -0.5060   -6.0540    3.0680 oh        1 MOL     -0.680193
     86 H35        -1.2160   -4.7760   -0.4510 hn        1 MOL      0.156194
     87 H36         1.1520   -5.6940    0.9540 h1        1 MOL      0.148115
     88 H37         0.8520   -4.5440    3.0790 h1        1 MOL     -0.051855
     89 H38        -0.6310   -6.5910    2.2870 ho        1 MOL      0.441485
     90 H39        -2.0870   -4.4900    2.5970 hc        1 MOL      0.029030
     91 H40        -1.2730   -3.4880    3.8590 hc        1 MOL      0.029030
     92 H41        -1.1710   -3.0720    2.1480 hc        1 MOL      0.029030
     93 N9          1.9180   -3.0640    0.8470 n         1 MOL     -0.489408
     94 C29         2.4570   -1.6650    0.6600 c3        1 MOL     -0.121430
     95 C30         3.8650   -1.8170   -0.0270 c         1 MOL      0.631847
     96 O16         4.2160   -1.1280   -0.9660 o         1 MOL     -0.523941
     97 C31         2.4030   -0.8830    2.0560 c3        1 MOL      0.018377
     98 C32         1.1310   -1.0900    2.8530 c3        1 MOL     -0.072874
     99 C33         2.7640    0.5620    1.6950 c3        1 MOL     -0.170976
    100 C34         1.0840   -0.3480    4.1890 c3        1 MOL     -0.170400
    101 H42         2.5480   -3.7310    1.2730 hn        1 MOL      0.283905
    102 H43         1.7770   -1.1400   -0.0060 h1        1 MOL      0.140043
    103 H44         3.1880   -1.2400    2.7300 hc        1 MOL      0.050963
    104 H45         0.9140   -2.1590    2.9730 hc        1 MOL      0.057862
    105 H46         0.2660   -0.6790    2.3210 hc        1 MOL      0.057862
    106 H47         1.9790    1.0400    1.1050 hc        1 MOL      0.056050
    107 H48         3.0100    1.1390    2.5880 hc        1 MOL      0.056050
    108 H49         3.6410    0.6620    1.0580 hc        1 MOL      0.056050
    109 H50         0.1360   -0.6030    4.6580 hc        1 MOL      0.048078
    110 H51         1.9040   -0.7160    4.8040 hc        1 MOL      0.048078
    111 H52         1.0820    0.7370    4.1000 hc        1 MOL      0.048078
    112 N10         4.7450   -2.7190    0.4250 n         1 MOL     -0.462314
    113 C35         6.0050   -3.2420   -0.2010 c3        1 MOL      0.016323
    114 C36         7.1800   -3.1230    0.7750 c         1 MOL      0.493441
    115 O17         7.0950   -3.4210    1.9920 o         1 MOL     -0.528525
    116 C37         5.9040   -4.6950   -0.7920 c3        1 MOL      0.446503
    117 C38         4.7500   -4.9250   -1.7360 c3        1 MOL     -0.313766
    118 O18         7.0320   -5.0790   -1.4390 oh        1 MOL     -0.686947
    119 H53         4.4920   -3.2320    1.2500 hn        1 MOL      0.219843
    120 H54         6.2340   -2.5800   -1.0310 h1        1 MOL      0.100366
    121 H55         5.8440   -5.3970    0.0410 h1        1 MOL     -0.035144
    122 H56         6.8980   -5.9810   -1.7470 ho        1 MOL      0.424923
    123 H57         3.8330   -4.6970   -1.1810 hc        1 MOL      0.075237
    124 H58         4.9060   -4.3110   -2.6240 hc        1 MOL      0.075237
    125 H59         4.7050   -5.9990   -1.9590 hc        1 MOL      0.075237
    126 N11         8.3400   -2.7450    0.2820 n         1 MOL     -0.454447
    127 C39         9.6590   -2.7180    0.9240 c3        1 MOL      0.008787
    128 C40        10.2020   -1.2480    0.9630 c         1 MOL      0.727184
    129 O19        10.8560   -0.8860    1.8910 o         1 MOL     -0.599024
    130 C41        10.5870   -3.6940    0.0980 c3        1 MOL      0.283509
    131 C42        11.8820   -3.8970    0.9090 c3        1 MOL     -0.506864
    132 O20        10.9800   -3.1010   -1.0930 oh        1 MOL     -0.614037
    133 H60         8.3010   -2.6270   -0.7290 hn        1 MOL      0.304553
    134 H61         9.5640   -3.0690    1.9560 h1        1 MOL      0.109968
    135 H62        10.0960   -4.5950   -0.2700 h1        1 MOL      0.050979
    136 H63        11.7940   -3.5870   -1.2510 ho        1 MOL      0.391591
    137 H64        12.4640   -4.6760    0.4300 hc        1 MOL      0.132122
    138 H65        12.3290   -2.9080    1.0350 hc        1 MOL      0.132122
    139 H66        11.5680   -4.1850    1.9160 hc        1 MOL      0.132122
    140 N12         9.8510   -0.3910    0.0570 n         1 MOL     -0.614305
    141 C43        10.4180    0.9660   -0.0230 c3        1 MOL      0.330698
    142 C44         9.3660    1.9950   -0.6000 c         1 MOL      0.494781
    143 O21         8.6720    1.6680   -1.5350 o         1 MOL     -0.505922
    144 C45        11.7480    1.0580   -0.7410 c3        1 MOL     -0.274607
    145 C46        12.6560    2.2520   -0.3990 c3        1 MOL      0.062274
    146 C47        13.9330    1.9980   -1.1580 c3        1 MOL     -0.064716
    147 C48        15.0420    3.0390   -0.8930 c3        1 MOL      0.041765
    148 N13        16.2660    2.6730   -1.6630 n4        1 MOL     -0.196312
    149 H67         9.2600   -0.7330   -0.6830 hn        1 MOL      0.292076
    150 H68        10.8250    1.1990    0.9570 h1        1 MOL      0.023345
    151 H69        11.5980    1.0500   -1.8200 hc        1 MOL      0.079717
    152 H70        12.2780    0.1580   -0.4280 hc        1 MOL      0.079717
    153 H71        12.9010    2.5480    0.6140 hc        1 MOL      0.029819
    154 H72        12.1860    3.1730   -0.7630 hc        1 MOL      0.029819
    155 H73        13.6720    2.0780   -2.2130 hc        1 MOL      0.038911
    156 H74        14.4010    1.0420   -0.9080 hc        1 MOL      0.038911
    157 H75        15.2860    3.1080    0.1720 hx        1 MOL      0.075423
    158 H76        14.5510    3.9540   -1.1970 hx        1 MOL      0.075423
    159 H77        16.9210    3.4470   -1.6690 hn        1 MOL      0.237982
    160 H78        16.7740    1.8820   -1.2880 hn        1 MOL      0.237982
    161 H79        16.0760    2.4270   -2.6170 hn        1 MOL      0.237982
    162 N14         9.2540    3.1190    0.0630 n         1 MOL     -0.650190
    163 C49         8.5020    4.2740   -0.5580 c3        1 MOL      0.483474
    164 C50         6.9710    4.3060   -0.4430 c         1 MOL      0.367499
    165 O22         6.4230    4.4690   -1.5300 o         1 MOL     -0.538508
    166 C51         9.1370    5.6520   -0.0710 c3        1 MOL     -0.060089
    167 C52         8.5810    6.7640   -1.0150 c3        1 MOL     -0.153120
    168 C53         9.3820    8.1090   -0.8950 c         1 MOL      0.666417
    169 O23         9.9290    8.6240   -1.9210 o         1 MOL     -0.662051
    170 O24         9.4480    8.5580    0.2670 o         1 MOL     -0.662051
    171 H80         9.8710    3.2200    0.8500 hn        1 MOL      0.259803
    172 H81         8.7160    4.2820   -1.6230 h1        1 MOL      0.005494
    173 H82        10.2180    5.5840   -0.2140 hc        1 MOL      0.005032
    174 H83         8.8630    5.8500    0.9670 hc        1 MOL      0.005032
    175 H84         7.5780    7.0040   -0.6560 hc        1 MOL      0.032752
    176 H85         8.5000    6.4060   -2.0370 hc        1 MOL      0.032752
    177 N15         6.2290    4.1220    0.6550 n         1 MOL     -0.333602
    178 C54         6.6350    4.3560    2.0950 c3        1 MOL     -0.176719
    179 H86         6.9480    5.3920    2.2190 h1        1 MOL      0.099023
    180 H87         5.7880    4.1510    2.7490 h1        1 MOL      0.099023
    181 H88         7.4610    3.6930    2.3510 h1        1 MOL      0.099023
    182 H89         5.2640    4.1570    0.3900 hn        1 MOL      0.288450
    183 Ca1        -5.8810    4.5270    1.2370 Ca        1 MOL      1.682764
    184 O25        -7.8380    3.4640    3.0740 oh        1 MOL     -0.817238
    185 H90        -8.6080    2.9760    2.7830 ho        1 MOL      0.395816
    186 H91        -8.1260    3.9370    3.8540 ho        1 MOL      0.395816
@<TRIPOS>BOND
     1    1    2 1   
     2    1    4 1   
     3    1    5 1   
     4    1    6 1   
     5    2    3 2   
     6    2    7 1   
     7    7    8 1   
     8    7   15 1   
     9    8    9 1   
    10    8   11 1   
    11    8   16 1   
    12    9   10 2   
    13    9   19 1   
    14   11   12 1   
    15   11   17 1   
    16   11   18 1   
    17   12   13 1   
    18   12   14 1   
    19   19   20 1   
    20   19   28 1   
    21   20   21 1   
    22   20   23 1   
    23   20   29 1   
    24   21   22 2   
    25   21   41 1   
    26   23   24 1   
    27   23   30 1   
    28   23   31 1   
    29   24   25 1   
    30   24   32 1   
    31   24   33 1   
    32   25   26 1   
    33   25   34 1   
    34   25   35 1   
    35   26   27 1   
    36   26   36 1   
    37   26   37 1   
    38   27   38 1   
    39   27   39 1   
    40   27   40 1   
    41   41   42 1   
    42   41   49 1   
    43   42   43 1   
    44   42   45 1   
    45   42   50 1   
    46   43   44 2   
    47   43   53 1   
    48   45   46 1   
    49   45   51 1   
    50   45   52 1   
    51   46   47 1   
    52   46   48 1   
    53   53   54 1   
    54   53   57 1   
    55   54   55 1   
    56   54   58 1   
    57   54   59 1   
    58   55   56 2   
    59   55   60 1   
    60   60   61 1   
    61   60   68 1   
    62   61   62 1   
    63   61   64 1   
    64   61   69 1   
    65   62   63 2   
    66   62   72 1   
    67   64   65 1   
    68   64   70 1   
    69   64   71 1   
    70   65   66 1   
    71   65   67 1   
    72   72   73 1   
    73   72   76 1   
    74   73   74 1   
    75   73   77 1   
    76   73   78 1   
    77   74   75 2   
    78   74   79 1   
    79   79   80 1   
    80   79   86 1   
    81   80   81 1   
    82   80   83 1   
    83   80   87 1   
    84   81   82 2   
    85   81   93 1   
    86   83   84 1   
    87   83   85 1   
    88   83   88 1   
    89   84   90 1   
    90   84   91 1   
    91   84   92 1   
    92   85   89 1   
    93   93   94 1   
    94   93  101 1   
    95   94   95 1   
    96   94   97 1   
    97   94  102 1   
    98   95   96 2   
    99   95  112 1   
   100   97   98 1   
   101   97   99 1   
   102   97  103 1   
   103   98  100 1   
   104   98  104 1   
   105   98  105 1   
   106   99  106 1   
   107   99  107 1   
   108   99  108 1   
   109  100  109 1   
   110  100  110 1   
   111  100  111 1   
   112  112  113 1   
   113  112  119 1   
   114  113  114 1   
   115  113  116 1   
   116  113  120 1   
   117  114  115 2   
   118  114  126 1   
   119  116  117 1   
   120  116  118 1   
   121  116  121 1   
   122  117  123 1   
   123  117  124 1   
   124  117  125 1   
   125  118  122 1   
   126  126  127 1   
   127  126  133 1   
   128  127  128 1   
   129  127  130 1   
   130  127  134 1   
   131  128  129 2   
   132  128  140 1   
   133  130  131 1   
   134  130  132 1   
   135  130  135 1   
   136  131  137 1   
   137  131  138 1   
   138  131  139 1   
   139  132  136 1   
   140  140  141 1   
   141  140  149 1   
   142  141  142 1   
   143  141  144 1   
   144  141  150 1   
   145  142  143 2   
   146  142  162 1   
   147  144  145 1   
   148  144  151 1   
   149  144  152 1   
   150  145  146 1   
   151  145  153 1   
   152  145  154 1   
   153  146  147 1   
   154  146  155 1   
   155  146  156 1   
   156  147  148 1   
   157  147  157 1   
   158  147  158 1   
   159  148  159 1   
   160  148  160 1   
   161  148  161 1   
   162  162  163 1   
   163  162  171 1   
   164  163  164 1   
   165  163  166 1   
   166  163  172 1   
   167  164  165 2   
   168  164  177 1   
   169  166  167 1   
   170  166  173 1   
   171  166  174 1   
   172  167  168 1   
   173  167  175 1   
   174  167  176 1   
   175  168  169 1   
   176  168  170 1   
   177  177  178 1   
   178  177  182 1   
   179  178  179 1   
   180  178  180 1   
   181  178  181 1   
   182  184  185 1   
   183  184  186 1   
@<TRIPOS>SUBSTRUCTURE
     1 MOL         1 TEMP              0 ****  ****    0 ROOT
