@<TRIPOS>MOLECULE
MOL
  192   187     1     0     0
SMALL
resp


@<TRIPOS>ATOM
      1 C1         -5.5650   -4.6000    4.3180 c3        1 MOL     -0.232084
      2 C2         -4.8210   -3.6680    3.3480 c         1 MOL      0.654073
      3 O1         -4.0490   -4.0740    2.5020 o         1 MOL     -0.553959
      4 H1         -5.3120   -4.3330    5.3440 hc        1 MOL      0.063709
      5 H2         -6.6400   -4.4970    4.1700 hc        1 MOL      0.063709
      6 H3         -5.2700   -5.6320    4.1290 hc        1 MOL      0.063709
      7 N1         -5.1600   -2.3640    3.3420 n         1 MOL     -0.532386
      8 C3         -4.8490   -1.3140    2.3180 c3        1 MOL      0.421568
      9 C4         -3.4140   -1.0050    1.9400 c         1 MOL     -0.144291
     10 O2         -3.1640   -0.0600    1.1510 o         1 MOL     -0.465544
     11 C5         -5.6460   -0.0490    2.7660 c3        1 MOL     -0.128371
     12 C6         -7.0670   -0.1900    3.1870 c         1 MOL      0.763715
     13 O3         -7.2270   -0.6600    4.2950 o         1 MOL     -0.708278
     14 O4         -7.9710    0.1910    2.4580 o         1 MOL     -0.708278
     15 H4         -5.8770   -2.0770    3.9840 hn        1 MOL      0.222858
     16 H5         -5.3600   -1.4960    1.3720 h1        1 MOL      0.018378
     17 H6         -5.5490    0.6580    1.9410 hc        1 MOL      0.010622
     18 H7         -5.0330    0.2120    3.6250 hc        1 MOL      0.010622
     19 N2         -2.4280   -1.6580    2.5780 n         1 MOL      0.011939
     20 C7         -0.9880   -1.3570    2.4770 c3        1 MOL      0.112828
     21 C8         -0.2490   -2.3660    1.5780 c         1 MOL      0.404013
     22 O5         -0.5100   -3.5500    1.7140 o         1 MOL     -0.517949
     23 C9         -0.4030   -1.1880    3.9430 c3        1 MOL      0.010638
     24 C10        -0.5580    0.1380    4.6520 c3        1 MOL     -0.017507
     25 C11        -1.9020    0.3980    5.3150 c3        1 MOL     -0.033308
     26 C12        -2.3690   -0.5360    6.3940 c3        1 MOL      0.000476
     27 N3         -1.4360   -0.7910    7.4920 n4        1 MOL     -0.196885
     28 H8         -2.7670   -2.4610    3.0930 hn        1 MOL      0.127379
     29 H9         -0.8470   -0.4790    1.8480 h1        1 MOL      0.212568
     30 H10         0.6710   -1.2810    3.8350 hc        1 MOL     -0.002119
     31 H11        -0.5810   -2.0400    4.5920 hc        1 MOL     -0.002119
     32 H12        -0.4850    0.9440    3.9250 hc        1 MOL      0.028352
     33 H13         0.2290    0.3300    5.3970 hc        1 MOL      0.028352
     34 H14        -2.7240    0.4740    4.5920 hc        1 MOL      0.032235
     35 H15        -1.7730    1.4100    5.7120 hc        1 MOL      0.032235
     36 H16        -2.5190   -1.5010    5.9000 hx        1 MOL      0.058646
     37 H17        -3.3800   -0.2360    6.6420 hx        1 MOL      0.058646
     38 H18        -1.4930   -0.0620    8.1890 hn        1 MOL      0.288308
     39 H19        -1.6470   -1.5740    8.0910 hn        1 MOL      0.288308
     40 H20        -0.4490   -0.7730    7.2750 hn        1 MOL      0.288308
     41 N4          0.7160   -1.9870    0.7030 n         1 MOL     -0.084911
     42 C13         1.2010   -0.6410    0.2340 c3        1 MOL     -0.639803
     43 C14         1.6500    0.2020    1.3830 c         1 MOL      0.243695
     44 O6          1.0380    1.2270    1.8000 o         1 MOL     -0.523397
     45 C15         0.2790   -0.0170   -0.8500 c3        1 MOL     -0.136807
     46 C16         0.2580   -0.8290   -2.1000 c         1 MOL      0.620804
     47 O7         -0.1060   -0.2230   -3.0990 o         1 MOL     -0.652202
     48 O8          0.6010   -2.0350   -2.1610 o         1 MOL     -0.652202
     49 H21         0.9490   -2.7000    0.0200 hn        1 MOL      0.071947
     50 H22         2.1060   -0.8880   -0.3280 h1        1 MOL      0.223307
     51 H23         0.6220    0.9690   -1.1660 hc        1 MOL      0.153374
     52 H24        -0.7260    0.0710   -0.4550 hc        1 MOL      0.153374
     53 N5          2.9020    0.0340    1.8440 n         1 MOL      0.020176
     54 C17         3.8360   -1.0420    1.4470 c3        1 MOL     -0.163732
     55 C18         4.5710   -1.6110    2.6750 c         1 MOL      0.401867
     56 O9          4.4280   -1.1260    3.8170 o         1 MOL     -0.531299
     57 H25         3.1190    0.5830    2.6570 hn        1 MOL      0.192599
     58 H26         4.6220   -0.5470    0.8690 h1        1 MOL      0.127845
     59 H27         3.4640   -1.8310    0.7910 h1        1 MOL      0.127845
     60 N6          5.5240   -2.4930    2.5010 n         1 MOL     -0.286697
     61 C19         5.9830   -3.1160    1.2360 c3        1 MOL      0.086259
     62 C20         6.7810   -2.1410    0.2860 c         1 MOL      0.509526
     63 O10         7.3850   -1.2020    0.8500 o         1 MOL     -0.492374
     64 C21         6.7780   -4.4460    1.5260 c3        1 MOL     -0.239248
     65 C22         7.7730   -4.3450    2.6790 c         1 MOL      0.753541
     66 O11         7.3170   -4.5830    3.8260 o         1 MOL     -0.671724
     67 O12         8.9820   -4.0900    2.4930 o         1 MOL     -0.671724
     68 H28         5.9740   -2.7080    3.3840 hn        1 MOL      0.267770
     69 H29         5.0960   -3.4250    0.6830 h1        1 MOL     -0.032575
     70 H30         7.3010   -4.6530    0.5920 hc        1 MOL      0.036802
     71 H31         6.0940   -5.2390    1.8500 hc        1 MOL      0.036802
     72 N7          6.7520   -2.2860   -0.9950 n         1 MOL     -0.337228
     73 C23         7.5680   -1.4110   -1.8730 c3        1 MOL     -0.204074
     74 C24         6.9820   -0.0390   -2.2330 c         1 MOL      0.383442
     75 O13         7.7120    0.8470   -2.6240 o         1 MOL     -0.506637
     76 H32         6.2580   -3.0740   -1.3980 hn        1 MOL      0.220644
     77 H33         7.8240   -1.9720   -2.7710 h1        1 MOL      0.158653
     78 H34         8.5670   -1.1960   -1.4910 h1        1 MOL      0.158653
     79 N8          5.6660    0.1630   -2.0440 n         1 MOL     -0.225631
     80 C25         5.0580    1.4760   -2.3710 c3        1 MOL      0.276447
     81 C26         4.1490    2.0270   -1.2230 c         1 MOL      0.320114
     82 O14         2.9860    1.6340   -1.0800 o         1 MOL     -0.415088
     83 C27         4.0990    1.2090   -3.5760 c3        1 MOL      0.348986
     84 C28         4.8380    0.5210   -4.7860 c3        1 MOL     -0.210293
     85 O15         3.5330    2.4000   -4.0720 oh        1 MOL     -0.652524
     86 H35         5.0500   -0.5650   -1.7260 hn        1 MOL      0.138961
     87 H36         5.8130    2.2050   -2.6620 h1        1 MOL      0.049349
     88 H37         3.3330    0.4750   -3.3420 h1        1 MOL     -0.039009
     89 H38         2.6890    2.1730   -4.4490 ho        1 MOL      0.423092
     90 H39         5.8230    0.9810   -4.8370 hc        1 MOL      0.031397
     91 H40         5.0440   -0.5030   -4.4830 hc        1 MOL      0.031397
     92 H41         4.3260    0.6290   -5.7400 hc        1 MOL      0.031397
     93 N9          4.7260    2.8470   -0.3040 n         1 MOL     -0.576045
     94 C29         4.0090    3.2320    0.9140 c3        1 MOL     -0.105172
     95 C30         2.8760    4.3020    0.7770 c         1 MOL      0.381859
     96 O16         2.6950    5.0670    1.6760 o         1 MOL     -0.530122
     97 C31         5.0450    3.4860    1.9950 c3        1 MOL      0.077320
     98 C32         5.9680    4.7260    1.9110 c3        1 MOL      0.226194
     99 C33         6.0430    2.2450    2.1370 c3        1 MOL     -0.300121
    100 C34         6.8290    4.9370    3.1790 c3        1 MOL     -0.317566
    101 H42         5.6650    3.1780   -0.4520 hn        1 MOL      0.348455
    102 H43         3.5480    2.3140    1.2660 h1        1 MOL      0.215153
    103 H44         4.4220    3.4380    2.8970 hc        1 MOL      0.030115
    104 H45         5.3370    5.6060    1.8570 hc        1 MOL     -0.026530
    105 H46         6.5820    4.7110    1.0040 hc        1 MOL     -0.026530
    106 H47         6.7500    2.1060    1.3190 hc        1 MOL      0.084100
    107 H48         6.5800    2.2490    3.0830 hc        1 MOL      0.084100
    108 H49         5.4490    1.3240    2.1320 hc        1 MOL      0.084100
    109 H50         7.8290    4.7460    2.7930 hc        1 MOL      0.074048
    110 H51         6.8790    6.0050    3.3940 hc        1 MOL      0.074048
    111 H52         6.6020    4.2850    4.0240 hc        1 MOL      0.074048
    112 N10         2.1930    4.3250   -0.3280 n         1 MOL      0.010871
    113 C35         1.1070    5.3410   -0.5910 c3        1 MOL     -0.110739
    114 C36        -0.3080    4.9110   -0.2400 c         1 MOL      0.276397
    115 O17        -1.2980    5.6830   -0.3700 o         1 MOL     -0.520869
    116 C37         1.3930    5.9480   -1.9660 c3        1 MOL      0.381184
    117 C38         1.0200    4.9350   -3.0670 c3        1 MOL     -0.365107
    118 O18         2.7980    6.2390   -2.0880 oh        1 MOL     -0.675196
    119 H53         2.4380    3.6610   -1.0460 hn        1 MOL      0.159554
    120 H54         1.2090    6.1740    0.0990 h1        1 MOL      0.144169
    121 H55         0.9620    6.9410   -2.1230 h1        1 MOL      0.015142
    122 H56         3.0750    6.1710   -3.0030 ho        1 MOL      0.404931
    123 H57         1.4220    3.9480   -2.8000 hc        1 MOL      0.092226
    124 H58        -0.0500    4.8520   -3.2240 hc        1 MOL      0.092226
    125 H59         1.5080    5.2240   -3.9940 hc        1 MOL      0.092226
    126 N11        -0.4280    3.6160    0.0720 n         1 MOL     -0.085724
    127 C39        -1.6980    2.9380    0.2960 c3        1 MOL     -0.001744
    128 C40        -2.5490    2.7490   -1.0200 c         1 MOL      0.564805
    129 O19        -2.1730    3.3950   -1.9900 o         1 MOL     -0.493540
    130 C41        -2.4890    3.4370    1.5170 c3        1 MOL      0.610355
    131 C42        -1.6410    3.7800    2.6920 c3        1 MOL     -0.295794
    132 O20        -3.5790    2.5990    1.8500 oh        1 MOL     -0.685014
    133 H60         0.4210    3.0690    0.0450 hn        1 MOL      0.125816
    134 H61        -1.3770    1.9440    0.5660 h1        1 MOL     -0.083301
    135 H62        -2.9870    4.3280    1.1120 h1        1 MOL     -0.067421
    136 H63        -3.2230    1.7300    2.0600 ho        1 MOL      0.358940
    137 H64        -2.2660    3.7360    3.5850 hc        1 MOL      0.060901
    138 H65        -0.8160    3.0830    2.8250 hc        1 MOL      0.060901
    139 H66        -1.2570    4.7900    2.5810 hc        1 MOL      0.060901
    140 N12        -3.6230    1.8860   -1.0180 n         1 MOL     -0.858197
    141 C43        -4.4980    1.5600   -2.2240 c3        1 MOL      0.446651
    142 C44        -4.4010    0.1720   -2.6240 c         1 MOL      0.504836
    143 O21        -4.5390   -0.0880   -3.8570 o         1 MOL     -0.592960
    144 C45        -5.9210    2.0040   -2.0210 c3        1 MOL     -0.309308
    145 C46        -6.0350    3.4200   -1.3450 c3        1 MOL      0.370313
    146 C47        -7.3950    4.0590   -1.6160 c3        1 MOL     -0.357218
    147 C48        -7.5090    5.5340   -1.2840 c3        1 MOL      0.022016
    148 N13        -8.4880    6.2060   -2.0840 n4        1 MOL     -0.225137
    149 H67        -3.7330    1.3410   -0.1810 hn        1 MOL      0.481082
    150 H68        -4.2190    2.0650   -3.1390 h1        1 MOL     -0.006774
    151 H69        -6.5310    1.3090   -1.4630 hc        1 MOL      0.053533
    152 H70        -6.3120    2.0800   -3.0400 hc        1 MOL      0.053533
    153 H71        -5.2770    4.0650   -1.7890 hc        1 MOL     -0.014018
    154 H72        -5.8770    3.3240   -0.2740 hc        1 MOL     -0.014018
    155 H73        -8.0910    3.5370   -0.9460 hc        1 MOL      0.118795
    156 H74        -7.7060    3.9980   -2.6610 hc        1 MOL      0.118795
    157 H75        -6.6380    6.0450   -1.6930 hx        1 MOL      0.089851
    158 H76        -7.5590    5.7660   -0.2270 hx        1 MOL      0.089851
    159 H77        -8.5380    7.1810   -1.8240 hn        1 MOL      0.292967
    160 H78        -8.3010    6.2450   -3.0760 hn        1 MOL      0.292967
    161 H79        -9.4080    5.8070   -2.0070 hn        1 MOL      0.292967
    162 N14        -4.1940   -0.7490   -1.6390 n         1 MOL     -0.205766
    163 C49        -4.3050   -2.1910   -1.9170 c3        1 MOL     -0.175516
    164 C50        -5.7400   -2.6260   -1.8140 c         1 MOL      0.423364
    165 O22        -6.4240   -2.2810   -0.8470 o         1 MOL     -0.481817
    166 C51        -3.2750   -2.9220   -1.0210 c3        1 MOL      0.698128
    167 C52        -3.2030   -4.4250   -1.3120 c3        1 MOL     -1.179082
    168 C53        -2.9030   -4.7860   -2.7670 c         1 MOL      0.923265
    169 O23        -3.8290   -4.7980   -3.6210 o         1 MOL     -0.758044
    170 O24        -1.7390   -4.9760   -3.2000 o         1 MOL     -0.758044
    171 H80        -4.2040   -0.3490   -0.7130 hn        1 MOL      0.115477
    172 H81        -4.0640   -2.4600   -2.9440 h1        1 MOL      0.138236
    173 H82        -3.4210   -2.7700    0.0530 hc        1 MOL     -0.095223
    174 H83        -2.3330   -2.4590   -1.2870 hc        1 MOL     -0.095223
    175 H84        -4.1820   -4.8410   -1.0720 hc        1 MOL      0.297280
    176 H85        -2.4470   -4.8580   -0.6660 hc        1 MOL      0.297280
    177 N15        -6.1300   -3.5680   -2.6850 n         1 MOL     -0.452603
    178 C54        -7.4810   -4.1180   -2.8450 c3        1 MOL      0.043328
    179 H86        -7.8410   -3.9080   -3.8520 h1        1 MOL      0.036539
    180 H87        -7.4570   -5.1960   -2.6860 h1        1 MOL      0.036539
    181 H88        -8.1500   -3.6570   -2.1180 h1        1 MOL      0.036539
    182 H89        -5.3910   -3.9340   -3.2790 hn        1 MOL      0.434343
    183 Ca1         0.7000   -4.4220   -3.2160 Ca        1 MOL      1.652454
    184 O25         1.0710   -5.3330   -5.8290 oh        1 MOL     -0.851509
    185 H90         1.8460   -5.4860   -6.3630 ho        1 MOL      0.418332
    186 H91         0.5290   -4.7510   -6.3480 ho        1 MOL      0.418332
    187 O26         0.1510   -2.3210   -4.8960 oh        1 MOL     -0.851509
    188 H92         0.2160   -1.6150   -4.2590 ho        1 MOL      0.418332
    189 H93         0.3570   -1.9010   -5.7340 ho        1 MOL      0.418332
    190 O27         2.8260   -3.1860   -4.5220 oh        1 MOL     -0.851509
    191 H94         2.8000   -2.8300   -5.4080 ho        1 MOL      0.418332
    192 H95         3.7410   -3.4090   -4.3750 ho        1 MOL      0.418332
@<TRIPOS>BOND
     1    1    2 1   
     2    1    4 1   
     3    1    5 1   
     4    1    6 1   
     5    2    3 2   
     6    2    7 1   
     7    7    8 1   
     8    7   15 1   
     9    8    9 1   
    10    8   11 1   
    11    8   16 1   
    12    9   10 2   
    13    9   19 1   
    14   11   12 1   
    15   11   17 1   
    16   11   18 1   
    17   12   13 1   
    18   12   14 1   
    19   19   20 1   
    20   19   28 1   
    21   20   21 1   
    22   20   23 1   
    23   20   29 1   
    24   21   22 2   
    25   21   41 1   
    26   23   24 1   
    27   23   30 1   
    28   23   31 1   
    29   24   25 1   
    30   24   32 1   
    31   24   33 1   
    32   25   26 1   
    33   25   34 1   
    34   25   35 1   
    35   26   27 1   
    36   26   36 1   
    37   26   37 1   
    38   27   38 1   
    39   27   39 1   
    40   27   40 1   
    41   41   42 1   
    42   41   49 1   
    43   42   43 1   
    44   42   45 1   
    45   42   50 1   
    46   43   44 2   
    47   43   53 1   
    48   45   46 1   
    49   45   51 1   
    50   45   52 1   
    51   46   47 1   
    52   46   48 1   
    53   53   54 1   
    54   53   57 1   
    55   54   55 1   
    56   54   58 1   
    57   54   59 1   
    58   55   56 2   
    59   55   60 1   
    60   60   61 1   
    61   60   68 1   
    62   61   62 1   
    63   61   64 1   
    64   61   69 1   
    65   62   63 2   
    66   62   72 1   
    67   64   65 1   
    68   64   70 1   
    69   64   71 1   
    70   65   66 1   
    71   65   67 1   
    72   72   73 1   
    73   72   76 1   
    74   73   74 1   
    75   73   77 1   
    76   73   78 1   
    77   74   75 2   
    78   74   79 1   
    79   79   80 1   
    80   79   86 1   
    81   80   81 1   
    82   80   83 1   
    83   80   87 1   
    84   81   82 2   
    85   81   93 1   
    86   83   84 1   
    87   83   85 1   
    88   83   88 1   
    89   84   90 1   
    90   84   91 1   
    91   84   92 1   
    92   85   89 1   
    93   93   94 1   
    94   93  101 1   
    95   94   95 1   
    96   94   97 1   
    97   94  102 1   
    98   95   96 2   
    99   95  112 1   
   100   97   98 1   
   101   97   99 1   
   102   97  103 1   
   103   98  100 1   
   104   98  104 1   
   105   98  105 1   
   106   99  106 1   
   107   99  107 1   
   108   99  108 1   
   109  100  109 1   
   110  100  110 1   
   111  100  111 1   
   112  112  113 1   
   113  112  119 1   
   114  113  114 1   
   115  113  116 1   
   116  113  120 1   
   117  114  115 2   
   118  114  126 1   
   119  116  117 1   
   120  116  118 1   
   121  116  121 1   
   122  117  123 1   
   123  117  124 1   
   124  117  125 1   
   125  118  122 1   
   126  126  127 1   
   127  126  133 1   
   128  127  128 1   
   129  127  130 1   
   130  127  134 1   
   131  128  129 2   
   132  128  140 1   
   133  130  131 1   
   134  130  132 1   
   135  130  135 1   
   136  131  137 1   
   137  131  138 1   
   138  131  139 1   
   139  132  136 1   
   140  140  141 1   
   141  140  149 1   
   142  141  142 1   
   143  141  144 1   
   144  141  150 1   
   145  142  143 2   
   146  142  162 1   
   147  144  145 1   
   148  144  151 1   
   149  144  152 1   
   150  145  146 1   
   151  145  153 1   
   152  145  154 1   
   153  146  147 1   
   154  146  155 1   
   155  146  156 1   
   156  147  148 1   
   157  147  157 1   
   158  147  158 1   
   159  148  159 1   
   160  148  160 1   
   161  148  161 1   
   162  162  163 1   
   163  162  171 1   
   164  163  164 1   
   165  163  166 1   
   166  163  172 1   
   167  164  165 2   
   168  164  177 1   
   169  166  167 1   
   170  166  173 1   
   171  166  174 1   
   172  167  168 1   
   173  167  175 1   
   174  167  176 1   
   175  168  169 1   
   176  168  170 1   
   177  177  178 1   
   178  177  182 1   
   179  178  179 1   
   180  178  180 1   
   181  178  181 1   
   182  184  185 1   
   183  184  186 1   
   184  187  188 1   
   185  187  189 1   
   186  190  191 1   
   187  190  192 1   
@<TRIPOS>SUBSTRUCTURE
     1 MOL         1 TEMP              0 ****  ****    0 ROOT
