@<TRIPOS>MOLECULE
MOL
  192   187     1     0     0
SMALL
resp


@<TRIPOS>ATOM
      1 C1          4.3400   -2.2690   -2.4790 c3        1 MOL     -0.142276
      2 C2          3.4360   -2.7950   -1.3010 c         1 MOL      0.666541
      3 O1          2.6650   -1.9840   -0.7990 o         1 MOL     -0.503874
      4 H1          4.6620   -1.2500   -2.2630 hc        1 MOL      0.013083
      5 H2          5.2150   -2.9110   -2.5820 hc        1 MOL      0.013083
      6 H3          3.7700   -2.2790   -3.4080 hc        1 MOL      0.013083
      7 N1          3.5840   -4.0450   -0.8430 n         1 MOL     -0.496402
      8 C3          2.8170   -4.6860    0.2170 c3        1 MOL     -0.355819
      9 C4          1.3750   -4.5900   -0.0670 c         1 MOL      0.994734
     10 O2          0.6100   -4.0550    0.6810 o         1 MOL     -0.590580
     11 C5          3.3570   -4.2280    1.6080 c3        1 MOL     -0.251316
     12 C6          4.8600   -4.2400    1.7710 c         1 MOL      0.683656
     13 O3          5.5800   -4.8050    0.9090 o         1 MOL     -0.704662
     14 O4          5.3100   -3.5180    2.6450 o         1 MOL     -0.704662
     15 H4          4.4200   -4.4740   -1.1980 hn        1 MOL      0.256820
     16 H5          3.0970   -5.7360    0.1130 h1        1 MOL      0.162413
     17 H6          2.8290   -4.6940    2.4380 hc        1 MOL      0.138968
     18 H7          3.1850   -3.1460    1.6380 hc        1 MOL      0.138968
     19 N2          1.0240   -5.2700   -1.1610 n         1 MOL     -0.981201
     20 C7         -0.4090   -5.2870   -1.6230 c3        1 MOL      0.437031
     21 C8         -1.0400   -6.6980   -1.5280 c         1 MOL      0.523307
     22 O5         -0.3500   -7.7180   -1.4700 o         1 MOL     -0.605176
     23 C9         -0.4490   -4.6540   -3.0250 c3        1 MOL      0.004960
     24 C10         0.4300   -5.2460   -4.1870 c3        1 MOL      0.045856
     25 C11        -0.2560   -3.0880   -2.9540 c3        1 MOL     -0.699309
     26 C12        -0.0840   -6.6030   -4.7840 c3        1 MOL     -0.102866
     27 H8          1.7360   -5.6700   -1.7460 hn        1 MOL      0.446945
     28 H9         -1.0030   -4.6450   -0.9690 h1        1 MOL      0.026605
     29 H10        -1.4770   -4.7360   -3.3760 hc        1 MOL      0.092365
     30 H11         1.4010   -5.5050   -3.7680 hc        1 MOL     -0.014032
     31 H12         0.5440   -4.5670   -5.0340 hc        1 MOL     -0.014032
     32 H13        -0.9500   -2.6880   -2.2230 hc        1 MOL      0.196348
     33 H14         0.7950   -2.8980   -2.7150 hc        1 MOL      0.196348
     34 H15        -0.4500   -2.7000   -3.9530 hc        1 MOL      0.196348
     35 H16        -0.8740   -6.4500   -5.5230 hc        1 MOL      0.012902
     36 H17         0.7850   -7.1600   -5.1570 hc        1 MOL      0.012902
     37 H18        -0.5040   -7.1210   -3.9220 hc        1 MOL      0.012902
     38 N3         -2.3360   -6.8420   -1.5210 n         1 MOL     -0.467145
     39 C13        -3.3850   -5.8890   -1.2480 c3        1 MOL     -0.216947
     40 C14        -4.2180   -6.2850    0.0030 c         1 MOL      0.667648
     41 O6         -4.8270   -7.4090    0.0280 o         1 MOL     -0.571390
     42 C15        -4.1950   -5.6530   -2.5150 c3        1 MOL     -0.068840
     43 C16        -5.3900   -4.7200   -2.4880 c         1 MOL      0.693156
     44 O7         -6.1810   -4.7220   -3.4940 o         1 MOL     -0.721528
     45 O8         -5.6430   -4.0020   -1.4680 o         1 MOL     -0.721528
     46 H19        -2.6340   -7.8140   -1.5540 hn        1 MOL      0.316864
     47 H20        -2.9290   -4.9230   -1.0720 h1        1 MOL      0.059175
     48 H21        -4.5400   -6.6060   -2.9010 hc        1 MOL      0.019686
     49 H22        -3.4990   -5.3610   -3.3060 hc        1 MOL      0.019686
     50 N4         -4.2120   -5.4310    1.0400 n         1 MOL     -0.360467
     51 C17        -4.7270   -5.6840    2.3790 c3        1 MOL     -0.241677
     52 C18        -5.3260   -4.5300    3.1230 c         1 MOL      0.727260
     53 O9         -5.7350   -4.6600    4.2310 o         1 MOL     -0.605109
     54 H23        -3.6140   -4.6290    0.9320 hn        1 MOL      0.314797
     55 H24        -3.9240   -6.1560    2.9570 h1        1 MOL      0.105351
     56 H25        -5.5350   -6.4130    2.3150 h1        1 MOL      0.105351
     57 N5         -5.2500   -3.3210    2.5040 n         1 MOL     -0.473896
     58 C19        -5.9700   -2.1120    3.0330 c3        1 MOL      0.018163
     59 C20        -6.8910   -1.4100    2.0840 c         1 MOL      0.492210
     60 O10        -8.0060   -1.0060    2.5290 o         1 MOL     -0.600763
     61 C21        -4.9560   -1.1050    3.6570 c3        1 MOL     -0.159457
     62 C22        -3.9350   -0.6720    2.6270 c         1 MOL      0.629805
     63 O11        -3.0600   -1.4660    2.2730 o         1 MOL     -0.675814
     64 O12        -4.2410    0.3800    1.9980 o         1 MOL     -0.675814
     65 H26        -4.8010   -3.2290    1.6030 hn        1 MOL      0.241651
     66 H27        -6.5610   -2.3930    3.8980 h1        1 MOL      0.084314
     67 H28        -4.4370   -1.5820    4.4930 hc        1 MOL      0.038489
     68 H29        -5.4590   -0.2560    4.1210 hc        1 MOL      0.038489
     69 N6         -6.5240   -1.1310    0.8380 n         1 MOL     -0.270127
     70 C23        -7.4030   -0.5190   -0.1910 c3        1 MOL     -0.041730
     71 C24        -7.7030    1.0130   -0.1130 c         1 MOL      0.494655
     72 O13        -8.4840    1.5110   -0.9620 o         1 MOL     -0.593568
     73 H30        -5.5270   -1.2360    0.6760 hn        1 MOL      0.286743
     74 H31        -8.3580   -1.0370   -0.1120 h1        1 MOL      0.081695
     75 H32        -7.0050   -0.8570   -1.1490 h1        1 MOL      0.081695
     76 N7         -7.0220    1.7030    0.7560 n         1 MOL     -0.075808
     77 C25        -7.0820    3.1570    0.8430 c3        1 MOL     -0.182754
     78 C26        -6.6930    3.9730   -0.5080 c         1 MOL      0.552906
     79 O14        -7.1500    5.1180   -0.6950 o         1 MOL     -0.517871
     80 C27        -8.3120    3.6320    1.5800 c3        1 MOL      0.154870
     81 C28        -8.1740    3.3280    3.0760 c3        1 MOL     -0.313506
     82 C29        -7.5610    4.3580    4.0800 c         1 MOL      0.703721
     83 N8         -7.5620    4.0790    5.3730 n         1 MOL     -0.832315
     84 O15        -7.0640    5.3700    3.7370 o         1 MOL     -0.539338
     85 H33        -6.3300    1.2570    1.3460 hn        1 MOL      0.118836
     86 H34        -6.1870    3.4020    1.4280 h1        1 MOL      0.134060
     87 H35        -9.1790    3.0990    1.1970 hc        1 MOL      0.002122
     88 H36        -8.5000    4.6900    1.3810 hc        1 MOL      0.002122
     89 H37        -7.7640    2.3300    3.1920 hc        1 MOL      0.076716
     90 H38        -9.1860    3.1470    3.4440 hc        1 MOL      0.076716
     91 H39        -7.8720    3.1950    5.7790 hn        1 MOL      0.350618
     92 H40        -7.2890    4.8000    6.0120 hn        1 MOL      0.350618
     93 N9         -5.8800    3.4070   -1.3860 n         1 MOL     -0.384547
     94 C30        -5.3180    3.9200   -2.6550 c3        1 MOL     -0.137646
     95 C31        -3.7850    3.7540   -2.9160 c         1 MOL      0.744113
     96 O16        -3.1800    4.5520   -3.5980 o         1 MOL     -0.589802
     97 C32        -6.1550    3.5600   -3.9230 c3        1 MOL      0.319837
     98 C33        -6.0840    2.0970   -4.2060 c3        1 MOL     -0.385016
     99 C34        -7.6600    3.9300   -3.7230 c3        1 MOL     -0.385016
    100 H41        -5.6220    2.4490   -1.1740 hn        1 MOL      0.213450
    101 H42        -5.3970    5.0020   -2.6100 h1        1 MOL      0.097345
    102 H43        -5.6990    4.0840   -4.7620 hc        1 MOL     -0.037587
    103 H44        -5.1580    1.8290   -4.7160 hc        1 MOL      0.093508
    104 H45        -6.2680    1.4360   -3.3580 hc        1 MOL      0.093508
    105 H46        -6.8150    1.7870   -4.9610 hc        1 MOL      0.093508
    106 H47        -8.1490    3.7920   -4.6910 hc        1 MOL      0.093508
    107 H48        -8.0770    3.2690   -2.9580 hc        1 MOL      0.093508
    108 H49        -7.5530    4.9420   -3.3250 hc        1 MOL      0.093508
    109 N10        -3.1400    2.7130   -2.3160 n         1 MOL     -0.686378
    110 C35        -1.7220    2.4700   -2.3890 c3        1 MOL      0.375831
    111 C36        -0.9340    2.9500   -1.1490 c         1 MOL      0.543667
    112 O17        -1.4930    3.0180   -0.0380 o         1 MOL     -0.555643
    113 C37        -1.4520    0.9100   -2.6090 c3        1 MOL     -0.479520
    114 C38         0.0120    0.4640   -2.5670 c         1 MOL      0.636105
    115 N11         0.3710   -0.3140   -1.6370 n         1 MOL     -0.490264
    116 O18         0.9400    0.8830   -3.2400 o         1 MOL     -0.609475
    117 H50        -3.7110    2.0180   -1.8400 hn        1 MOL      0.337478
    118 H51        -1.2860    2.9720   -3.2580 h1        1 MOL      0.048373
    119 H52        -1.9240    0.6600   -3.5590 hc        1 MOL      0.117856
    120 H53        -1.9520    0.3470   -1.8150 hc        1 MOL      0.117856
    121 H54        -0.3090   -0.7260   -1.0210 hn        1 MOL      0.283477
    122 H55         1.3490   -0.5250   -1.5060 hn        1 MOL      0.283477
    123 N12         0.3310    3.2340   -1.2750 n         1 MOL     -0.599346
    124 C39         1.3020    3.4420   -0.1610 c3        1 MOL      0.425494
    125 C40         2.5370    4.1460   -0.6280 c         1 MOL      0.379218
    126 O19         2.9910    4.1170   -1.7440 o         1 MOL     -0.511079
    127 C41         1.5380    2.1130    0.5990 c3        1 MOL     -0.019587
    128 C42         1.7860    2.2950    2.0760 ca        1 MOL     -0.113310
    129 C43         3.1110    2.3310    2.6200 ca        1 MOL     -0.027758
    130 C44         0.6770    2.4960    2.8760 ca        1 MOL     -0.027758
    131 C45         3.3180    2.6640    4.0190 ca        1 MOL     -0.360230
    132 C46         0.8330    2.9030    4.2210 ca        1 MOL     -0.360230
    133 C47         2.1210    2.8780    4.7870 ca        1 MOL      0.379126
    134 O20         2.3190    3.0730    6.1520 oh        1 MOL     -0.515717
    135 H56         0.7560    2.9160   -2.1270 hn        1 MOL      0.238012
    136 H57         0.9340    4.1110    0.6130 h1        1 MOL      0.002168
    137 H58         2.3720    1.5300    0.2240 hc        1 MOL      0.063501
    138 H59         0.6860    1.4410    0.4650 hc        1 MOL      0.063501
    139 H60         4.0120    2.2470    2.0340 ha        1 MOL      0.139136
    140 H61        -0.3070    2.5240    2.4310 ha        1 MOL      0.139136
    141 H62         4.2870    2.7200    4.5060 ha        1 MOL      0.181994
    142 H63         0.0520    3.1900    4.9170 ha        1 MOL      0.181994
    143 H64         3.2570    3.1150    6.3430 ho        1 MOL      0.340193
    144 N13         3.2780    4.8020    0.2930 n         1 MOL     -0.371686
    145 C48         4.5660    5.4500    0.1530 c3        1 MOL     -0.040830
    146 C49         5.7040    4.9230    1.0700 c         1 MOL      0.728864
    147 O21         6.0860    5.5020    2.0850 o         1 MOL     -0.590243
    148 C50         4.3190    6.9540    0.0330 c3        1 MOL     -0.054561
    149 C51         3.4870    7.3560   -1.2300 c3        1 MOL     -0.109610
    150 C52         3.5690    8.8500   -1.3980 c         1 MOL      0.610197
    151 O22         4.3040    9.3930   -2.2750 o         1 MOL     -0.658400
    152 O23         2.9590    9.6220   -0.5490 o         1 MOL     -0.658400
    153 H65         2.8270    4.8370    1.1980 hn        1 MOL      0.237017
    154 H66         4.9140    5.2070   -0.8490 h1        1 MOL      0.213243
    155 H67         5.3400    7.3250   -0.0150 hc        1 MOL      0.032217
    156 H68         3.7500    7.3210    0.8920 hc        1 MOL      0.032217
    157 H69         2.4370    7.0400   -1.2250 hc        1 MOL      0.029324
    158 H70         4.0190    6.8520   -2.0310 hc        1 MOL      0.029324
    159 N14         6.3020    3.7600    0.7690 n         1 MOL     -0.926401
    160 C53         6.3340    2.9310   -0.4230 c3        1 MOL      0.261776
    161 C54         6.7150    3.6310   -1.7070 c         1 MOL      0.516138
    162 O24         7.5550    4.5300   -1.7470 o         1 MOL     -0.528978
    163 C55         7.0280    1.5800   -0.1350 c3        1 MOL     -0.345592
    164 C56         6.5130    0.4050   -0.9880 c3        1 MOL      0.134657
    165 C57         7.0730   -0.9580   -0.4970 c         1 MOL      0.668994
    166 O25         8.2910   -1.1810   -0.4110 o         1 MOL     -0.741899
    167 O26         6.2140   -1.8040   -0.1300 o         1 MOL     -0.741899
    168 H71         7.1130    3.6280    1.3510 hn        1 MOL      0.411514
    169 H72         5.3050    2.5810   -0.5320 h1        1 MOL     -0.018567
    170 H73         6.8680    1.2230    0.8870 hc        1 MOL      0.119007
    171 H74         8.1040    1.6240   -0.2640 hc        1 MOL      0.119007
    172 H75         6.8390    0.6180   -2.0020 hc        1 MOL     -0.029055
    173 H76         5.4180    0.4420   -0.9670 hc        1 MOL     -0.029055
    174 N15         5.9520    3.3380   -2.7880 n         1 MOL     -0.249551
    175 C58         6.0950    3.9290   -4.1140 c3        1 MOL     -0.361859
    176 H77         5.7340    4.9570   -4.0940 h1        1 MOL      0.135610
    177 H78         7.1460    3.9190   -4.4040 h1        1 MOL      0.135610
    178 H79         5.5140    3.3540   -4.8340 h1        1 MOL      0.135610
    179 H80         5.2520    2.6120   -2.6790 hn        1 MOL      0.253958
    180 Ca1         7.7910   -3.3990    1.1630 Ca        1 MOL      1.670855
    181 O27         8.1710   -1.4490    2.9290 oh        1 MOL     -0.816083
    182 H81         9.0300   -1.4680    3.3500 ho        1 MOL      0.384443
    183 H82         7.8820   -0.5360    3.0290 ho        1 MOL      0.384443
    184 O28         8.9280   -5.9820    1.3800 oh        1 MOL     -0.816083
    185 H83         8.7950   -6.6100    2.0900 ho        1 MOL      0.384443
    186 H84         9.7430   -6.2590    0.9670 ho        1 MOL      0.384443
    187 O29         8.6280   -4.2350    3.6490 oh        1 MOL     -0.816083
    188 H85         8.0830   -3.8510    4.3360 ho        1 MOL      0.384443
    189 H86         9.2720   -4.7690    4.1090 ho        1 MOL      0.384443
    190 O30        10.4860   -3.0370    0.6140 oh        1 MOL     -0.816083
    191 H87        11.2990   -3.4650    0.8910 ho        1 MOL      0.384443
    192 H88        10.6360   -2.7720   -0.2890 ho        1 MOL      0.384443
@<TRIPOS>BOND
     1    1    2 1   
     2    1    4 1   
     3    1    5 1   
     4    1    6 1   
     5    2    3 2   
     6    2    7 1   
     7    7    8 1   
     8    7   15 1   
     9    8    9 1   
    10    8   11 1   
    11    8   16 1   
    12    9   10 2   
    13    9   19 1   
    14   11   12 1   
    15   11   17 1   
    16   11   18 1   
    17   12   13 1   
    18   12   14 1   
    19   19   20 1   
    20   19   27 1   
    21   20   21 1   
    22   20   23 1   
    23   20   28 1   
    24   21   22 2   
    25   21   38 1   
    26   23   24 1   
    27   23   25 1   
    28   23   29 1   
    29   24   26 1   
    30   24   30 1   
    31   24   31 1   
    32   25   32 1   
    33   25   33 1   
    34   25   34 1   
    35   26   35 1   
    36   26   36 1   
    37   26   37 1   
    38   38   39 1   
    39   38   46 1   
    40   39   40 1   
    41   39   42 1   
    42   39   47 1   
    43   40   41 2   
    44   40   50 1   
    45   42   43 1   
    46   42   48 1   
    47   42   49 1   
    48   43   44 1   
    49   43   45 1   
    50   50   51 1   
    51   50   54 1   
    52   51   52 1   
    53   51   55 1   
    54   51   56 1   
    55   52   53 2   
    56   52   57 1   
    57   57   58 1   
    58   57   65 1   
    59   58   59 1   
    60   58   61 1   
    61   58   66 1   
    62   59   60 2   
    63   59   69 1   
    64   61   62 1   
    65   61   67 1   
    66   61   68 1   
    67   62   63 1   
    68   62   64 1   
    69   69   70 1   
    70   69   73 1   
    71   70   71 1   
    72   70   74 1   
    73   70   75 1   
    74   71   72 2   
    75   71   76 1   
    76   76   77 1   
    77   76   85 1   
    78   77   78 1   
    79   77   80 1   
    80   77   86 1   
    81   78   79 2   
    82   78   93 1   
    83   80   81 1   
    84   80   87 1   
    85   80   88 1   
    86   81   82 1   
    87   81   89 1   
    88   81   90 1   
    89   82   83 1   
    90   82   84 2   
    91   83   91 1   
    92   83   92 1   
    93   93   94 1   
    94   93  100 1   
    95   94   95 1   
    96   94   97 1   
    97   94  101 1   
    98   95   96 2   
    99   95  109 1   
   100   97   98 1   
   101   97   99 1   
   102   97  102 1   
   103   98  103 1   
   104   98  104 1   
   105   98  105 1   
   106   99  106 1   
   107   99  107 1   
   108   99  108 1   
   109  109  110 1   
   110  109  117 1   
   111  110  111 1   
   112  110  113 1   
   113  110  118 1   
   114  111  112 2   
   115  111  123 1   
   116  113  114 1   
   117  113  119 1   
   118  113  120 1   
   119  114  115 1   
   120  114  116 2   
   121  115  121 1   
   122  115  122 1   
   123  123  124 1   
   124  123  135 1   
   125  124  125 1   
   126  124  127 1   
   127  124  136 1   
   128  125  126 2   
   129  125  144 1   
   130  127  128 1   
   131  127  137 1   
   132  127  138 1   
   133  128  129 ar  
   134  128  130 ar  
   135  129  131 ar  
   136  129  139 1   
   137  130  132 ar  
   138  130  140 1   
   139  131  133 ar  
   140  131  141 1   
   141  132  133 ar  
   142  132  142 1   
   143  133  134 1   
   144  134  143 1   
   145  144  145 1   
   146  144  153 1   
   147  145  146 1   
   148  145  148 1   
   149  145  154 1   
   150  146  147 2   
   151  146  159 1   
   152  148  149 1   
   153  148  155 1   
   154  148  156 1   
   155  149  150 1   
   156  149  157 1   
   157  149  158 1   
   158  150  151 1   
   159  150  152 1   
   160  159  160 1   
   161  159  168 1   
   162  160  161 1   
   163  160  163 1   
   164  160  169 1   
   165  161  162 2   
   166  161  174 1   
   167  163  164 1   
   168  163  170 1   
   169  163  171 1   
   170  164  165 1   
   171  164  172 1   
   172  164  173 1   
   173  165  166 1   
   174  165  167 1   
   175  174  175 1   
   176  174  179 1   
   177  175  176 1   
   178  175  177 1   
   179  175  178 1   
   180  181  182 1   
   181  181  183 1   
   182  184  185 1   
   183  184  186 1   
   184  187  188 1   
   185  187  189 1   
   186  190  191 1   
   187  190  192 1   
@<TRIPOS>SUBSTRUCTURE
     1 MOL         1 TEMP              0 ****  ****    0 ROOT
