@<TRIPOS>MOLECULE
MOL
  178   175     1     0     0
SMALL
resp


@<TRIPOS>ATOM
      1 C1          7.0180   -3.6280    3.2850 c3        1 MOL     -0.381567
      2 C2          7.8160   -2.3590    2.9010 c         1 MOL      0.697698
      3 O1          7.3110   -1.2690    2.6200 o         1 MOL     -0.585948
      4 H1          5.9590   -3.3810    3.3640 hc        1 MOL      0.091895
      5 H2          7.1540   -4.3900    2.5170 hc        1 MOL      0.091895
      6 H3          7.3750   -4.0080    4.2420 hc        1 MOL      0.091895
      7 N1          9.1000   -2.5250    2.9530 n         1 MOL     -0.630873
      8 C3         10.0220   -1.4520    2.5710 c3        1 MOL      0.292522
      9 C4         10.0960   -1.3460    1.0070 c         1 MOL      0.540319
     10 O2         10.7530   -2.0280    0.2390 o         1 MOL     -0.546194
     11 C5         11.3580   -1.8430    3.2840 c3        1 MOL     -0.368876
     12 C6         12.4600   -0.7990    3.0950 c         1 MOL      0.780287
     13 O3         12.2440    0.3600    2.6650 o         1 MOL     -0.740619
     14 O4         13.6110   -1.1690    3.4630 o         1 MOL     -0.740619
     15 H4          9.4370   -3.4580    3.1350 hn        1 MOL      0.332749
     16 H5          9.6910   -0.4570    2.8810 h1        1 MOL      0.043458
     17 H6         11.5380   -2.8710    2.9930 hc        1 MOL      0.055861
     18 H7         11.1260   -1.8900    4.3500 hc        1 MOL      0.055861
     19 N2          9.2230   -0.4060    0.5190 n         1 MOL     -0.520843
     20 C7          8.8790   -0.0910   -0.8380 c3        1 MOL      0.336543
     21 C8          7.3840    0.2790   -0.9190 c         1 MOL      0.446789
     22 O5          6.7400    0.9060   -0.0610 o         1 MOL     -0.479084
     23 C9          9.6770    1.1500   -1.3080 c3        1 MOL     -0.167491
     24 H8          8.5380   -0.0730    1.1730 hn        1 MOL      0.257368
     25 H9          9.0830   -0.7980   -1.6450 h1        1 MOL     -0.027978
     26 H10         9.5700    1.8060   -0.4490 hc        1 MOL      0.041179
     27 H11        10.7580    1.0270   -1.4680 hc        1 MOL      0.041179
     28 H12         9.1920    1.5440   -2.1980 hc        1 MOL      0.041179
     29 N3          6.7450    0.0160   -2.1230 n         1 MOL     -0.691478
     30 C10         5.2690    0.1130   -2.5630 c3        1 MOL      0.454177
     31 C11         4.9110    1.4670   -3.2090 c         1 MOL      0.381674
     32 O6          4.8300    1.6060   -4.4100 o         1 MOL     -0.520348
     33 C12         4.8020   -1.0860   -3.3750 c3        1 MOL     -0.071087
     34 C13         3.2710   -1.2200   -3.3730 c         1 MOL      0.627561
     35 O7          2.6500   -0.6890   -2.4710 o         1 MOL     -0.718605
     36 O8          2.7480   -2.0010   -4.1640 o         1 MOL     -0.718605
     37 H13         7.3210   -0.3660   -2.8580 hn        1 MOL      0.311721
     38 H14         4.7050    0.1030   -1.6290 h1        1 MOL     -0.003500
     39 H15         5.2970   -1.9520   -2.9500 hc        1 MOL     -0.011596
     40 H16         5.2850   -0.9260   -4.3450 hc        1 MOL     -0.011596
     41 N4          4.8240    2.5180   -2.3910 n         1 MOL     -0.164341
     42 C14         4.6520    3.9010   -2.7220 c3        1 MOL     -0.351782
     43 C15         3.2050    4.3240   -2.8740 c         1 MOL      0.675743
     44 O9          2.9470    5.4010   -3.3830 o         1 MOL     -0.588200
     45 H17         4.8910    2.2830   -1.4080 hn        1 MOL      0.207595
     46 H18         5.1130    4.2570   -3.6510 h1        1 MOL      0.144814
     47 H19         5.0190    4.4770   -1.8740 h1        1 MOL      0.144814
     48 N5          2.2370    3.5030   -2.3920 n         1 MOL     -0.414926
     49 C16         0.8190    3.7290   -2.6850 c3        1 MOL      0.133423
     50 C17         0.1780    4.8760   -1.9110 c         1 MOL      0.499384
     51 O10         0.6450    5.1550   -0.8460 o         1 MOL     -0.526073
     52 C18         0.1050    2.3850   -2.4470 c3        1 MOL     -0.187132
     53 C19        -1.2060    2.2230   -3.2290 c         1 MOL      0.684148
     54 N6         -1.8960    1.1320   -3.1730 n         1 MOL     -0.830174
     55 O11        -1.7320    3.1490   -3.7920 o         1 MOL     -0.598770
     56 H20         2.5420    2.6320   -1.9790 hn        1 MOL      0.214771
     57 H21         0.7240    4.0010   -3.7400 h1        1 MOL      0.011211
     58 H22        -0.0840    2.2490   -1.3850 hc        1 MOL      0.111706
     59 H23         0.8790    1.7030   -2.8130 hc        1 MOL      0.111706
     60 H24        -1.5730    0.2480   -2.7850 hn        1 MOL      0.357882
     61 H25        -2.8700    1.2930   -3.3960 hn        1 MOL      0.357882
     62 N7         -0.7970    5.6330   -2.4310 n         1 MOL     -0.426739
     63 C20        -1.5700    6.6440   -1.7110 c3        1 MOL      0.029110
     64 C21        -2.6290    6.1170   -0.7640 c         1 MOL      0.562400
     65 O12        -3.2510    5.0600   -1.0560 o         1 MOL     -0.523115
     66 H26        -1.1140    5.4360   -3.3640 hn        1 MOL      0.292268
     67 H27        -1.9980    7.4500   -2.2940 h1        1 MOL      0.036367
     68 H28        -0.8880    7.1010   -0.9940 h1        1 MOL      0.036367
     69 N8         -2.8770    6.8270    0.3090 n         1 MOL     -0.332483
     70 C22        -3.9970    6.7600    1.2390 c3        1 MOL     -0.335796
     71 C23        -4.0930    5.4700    2.0950 c         1 MOL      0.419001
     72 O13        -5.0790    5.2390    2.7760 o         1 MOL     -0.558498
     73 C24        -3.9110    7.8870    2.2450 c3        1 MOL      0.639095
     74 C25        -2.8700    7.6050    3.3830 c3        1 MOL     -0.289785
     75 O14        -3.5070    9.0800    1.7760 oh        1 MOL     -0.684069
     76 H29        -2.3060    7.6300    0.5380 hn        1 MOL      0.186683
     77 H30        -4.9270    6.9380    0.7060 h1        1 MOL      0.145524
     78 H31        -4.8480    7.9750    2.7840 h1        1 MOL     -0.014179
     79 H32        -2.5730    9.0380    1.5540 ho        1 MOL      0.408126
     80 H33        -3.3180    6.8840    4.0630 hc        1 MOL      0.050586
     81 H34        -1.9740    7.1450    2.9600 hc        1 MOL      0.050586
     82 H35        -2.6600    8.4910    3.9800 hc        1 MOL      0.050586
     83 N9         -3.0310    4.6840    2.1650 n         1 MOL      0.043685
     84 C26        -3.1690    3.2560    2.6240 c3        1 MOL     -0.144505
     85 C27        -2.3120    2.4160    1.7090 c         1 MOL      0.333529
     86 O15        -1.4020    2.8540    1.0570 o         1 MOL     -0.415873
     87 C28        -2.6650    3.0210    4.0930 c3        1 MOL      0.186184
     88 C29        -1.2180    3.4200    4.4070 c3        1 MOL      0.102465
     89 C30        -3.7150    3.5190    5.1410 c3        1 MOL     -0.247631
     90 C31        -0.9090    4.8740    4.6280 c3        1 MOL     -0.193674
     91 H36        -2.2130    4.8740    1.6070 hn        1 MOL      0.159098
     92 H37        -4.1970    2.8950    2.5170 h1        1 MOL      0.095127
     93 H38        -2.6470    1.9440    4.2890 hc        1 MOL     -0.043541
     94 H39        -0.5510    2.9590    3.6870 hc        1 MOL     -0.004814
     95 H40        -1.0070    2.8740    5.3270 hc        1 MOL     -0.004814
     96 H41        -3.7730    4.6080    5.1970 hc        1 MOL      0.059738
     97 H42        -4.7300    3.1770    4.9570 hc        1 MOL      0.059738
     98 H43        -3.4130    3.2790    6.1540 hc        1 MOL      0.059738
     99 H44        -0.7650    5.2920    3.6220 hc        1 MOL      0.035884
    100 H45        -1.7780    5.3380    5.0940 hc        1 MOL      0.035884
    101 H46        -0.0080    5.0060    5.2340 hc        1 MOL      0.035884
    102 N10        -2.6620    1.1410    1.5970 n         1 MOL     -0.413631
    103 C32        -2.2890    0.2440    0.5270 c3        1 MOL      0.091652
    104 C33        -3.5230   -0.6450    0.2500 c         1 MOL      0.788180
    105 O16        -3.4080   -1.7970    0.2440 o         1 MOL     -0.544903
    106 C34        -1.0290   -0.5140    0.8920 c3        1 MOL     -0.397139
    107 C35        -0.4600   -1.3460   -0.2100 c         1 MOL      0.728377
    108 O17        -0.8300   -1.1420   -1.3520 o         1 MOL     -0.726464
    109 O18         0.4330   -2.1540    0.0690 o         1 MOL     -0.726464
    110 H47        -3.4140    0.8570    2.2070 hn        1 MOL      0.279937
    111 H48        -2.2390    0.8010   -0.4020 h1        1 MOL      0.089449
    112 H49        -1.1940   -1.0490    1.8240 hc        1 MOL      0.139278
    113 H50        -0.2400    0.2060    1.1270 hc        1 MOL      0.139278
    114 N11        -4.7120   -0.1270   -0.0140 n         1 MOL     -0.900843
    115 C36        -5.8410   -0.9410   -0.4300 c3        1 MOL      0.710551
    116 C37        -6.1270   -1.9860    0.6620 c         1 MOL      0.162176
    117 O19        -6.3490   -1.6190    1.8500 o         1 MOL     -0.516758
    118 C38        -6.9820   -0.0140   -0.7510 c3        1 MOL     -0.290610
    119 C39        -8.2150   -0.7540   -1.3640 ca        1 MOL      0.055257
    120 C40        -8.2380   -0.9790   -2.7830 ca        1 MOL     -0.112238
    121 C41        -9.1270   -1.3400   -0.4350 ca        1 MOL     -0.112238
    122 C42        -9.2080   -1.7820   -3.2720 ca        1 MOL     -0.166370
    123 C43       -10.0330   -2.2060   -0.9370 ca        1 MOL     -0.166370
    124 C44       -10.0990   -2.3720   -2.3090 ca        1 MOL     -0.043928
    125 H51        -4.7840    0.8680   -0.1770 hn        1 MOL      0.351260
    126 H52        -5.5780   -1.3920   -1.3820 h1        1 MOL     -0.066864
    127 H53        -6.4990    0.6200   -1.5000 hc        1 MOL      0.084533
    128 H54        -7.2760    0.5660    0.1200 hc        1 MOL      0.084533
    129 H55        -7.4500   -0.6290   -3.4300 ha        1 MOL      0.120607
    130 H56        -8.8520   -1.2080    0.6000 ha        1 MOL      0.120607
    131 H57        -9.2660   -2.1600   -4.2750 ha        1 MOL      0.128413
    132 H58       -10.5500   -2.8330   -0.2250 ha        1 MOL      0.128413
    133 H59       -10.8540   -3.0340   -2.7110 ha        1 MOL      0.067484
    134 N12        -6.0480   -3.3200    0.3920 n         1 MOL      0.051112
    135 C45        -6.4010   -4.4410    1.3260 c3        1 MOL     -0.313351
    136 C46        -5.2090   -5.1100    2.0070 c         1 MOL      0.412105
    137 O20        -5.3820   -6.0180    2.8450 o         1 MOL     -0.482473
    138 C47        -7.0970   -5.4910    0.3450 c3        1 MOL      0.134223
    139 C48        -6.2170   -5.3520   -0.9000 c3        1 MOL     -0.084702
    140 C49        -5.9650   -3.8110   -0.9390 c3        1 MOL      0.180141
    141 H60        -7.2010   -4.1160    1.9910 h1        1 MOL      0.159620
    142 H61        -7.0420   -6.4680    0.8290 hc        1 MOL     -0.004365
    143 H62        -8.1440   -5.2670    0.1760 hc        1 MOL     -0.004365
    144 H63        -5.3020   -5.9270   -0.7450 hc        1 MOL      0.014492
    145 H64        -6.7480   -5.7130   -1.7820 hc        1 MOL      0.014492
    146 H65        -5.0100   -3.5990   -1.4020 h1        1 MOL     -0.060938
    147 H66        -6.7460   -3.4050   -1.5820 h1        1 MOL     -0.060938
    148 N13        -3.9940   -4.6730    1.6030 n         1 MOL     -0.230260
    149 C50        -2.8180   -5.3150    2.0850 c3        1 MOL     -0.228842
    150 C51        -2.4720   -4.7850    3.4500 c         1 MOL      0.461708
    151 O21        -1.8860   -5.5230    4.2400 o         1 MOL     -0.536170
    152 C52        -1.7150   -4.8870    1.0840 c3        1 MOL      0.190729
    153 C53        -1.7570   -5.7000   -0.2380 c3        1 MOL     -0.255629
    154 C54        -0.8310   -5.0750   -1.2300 c         1 MOL      0.686562
    155 O22         0.3850   -5.1390   -1.0510 o         1 MOL     -0.740857
    156 O23        -1.2060   -4.4240   -2.2830 o         1 MOL     -0.740857
    157 H67        -3.8820   -4.0490    0.8240 hn        1 MOL      0.356386
    158 H68        -2.9360   -6.3910    2.0330 h1        1 MOL      0.131340
    159 H69        -0.7570   -5.1400    1.5310 hc        1 MOL      0.016665
    160 H70        -1.7530   -3.8160    0.8410 hc        1 MOL      0.016665
    161 H71        -2.7840   -5.6700   -0.6000 hc        1 MOL      0.055218
    162 H72        -1.3170   -6.6840   -0.0320 hc        1 MOL      0.055218
    163 N14        -2.7470   -3.5360    3.7590 n         1 MOL     -0.135568
    164 C55        -2.4160   -2.9610    5.0340 c3        1 MOL     -0.373479
    165 H73        -3.0690   -3.3790    5.8010 h1        1 MOL      0.134516
    166 H74        -1.3770   -3.1870    5.2780 h1        1 MOL      0.134516
    167 H75        -2.5530   -1.8800    4.9930 h1        1 MOL      0.134516
    168 H76        -3.0530   -2.9540    2.9980 hn        1 MOL      0.172761
    169 Ca1         0.9120   -2.9020   -2.4730 Ca        1 MOL      1.708915
    170 O24         3.0980   -3.3270   -1.0380 oh        1 MOL     -0.845319
    171 H77         3.0120   -4.0850   -0.4590 ho        1 MOL      0.419495
    172 H78         3.7140   -2.7510   -0.5840 ho        1 MOL      0.419495
    173 O25        -0.7400   -2.3440   -4.5330 oh        1 MOL     -0.845319
    174 H79        -0.7160   -2.8220   -5.3630 ho        1 MOL      0.419495
    175 H80        -1.3940   -1.6560   -4.6700 ho        1 MOL      0.419495
    176 O26         1.5450   -4.8690   -4.0330 oh        1 MOL     -0.845319
    177 H81         1.4590   -5.7160   -3.5970 ho        1 MOL      0.419495
    178 H82         2.1550   -5.0240   -4.7570 ho        1 MOL      0.419495
@<TRIPOS>BOND
     1    1    2 1   
     2    1    4 1   
     3    1    5 1   
     4    1    6 1   
     5    2    3 2   
     6    2    7 1   
     7    7    8 1   
     8    7   15 1   
     9    8    9 1   
    10    8   11 1   
    11    8   16 1   
    12    9   10 2   
    13    9   19 1   
    14   11   12 1   
    15   11   17 1   
    16   11   18 1   
    17   12   13 1   
    18   12   14 1   
    19   19   20 1   
    20   19   24 1   
    21   20   21 1   
    22   20   23 1   
    23   20   25 1   
    24   21   22 2   
    25   21   29 1   
    26   23   26 1   
    27   23   27 1   
    28   23   28 1   
    29   29   30 1   
    30   29   37 1   
    31   30   31 1   
    32   30   33 1   
    33   30   38 1   
    34   31   32 2   
    35   31   41 1   
    36   33   34 1   
    37   33   39 1   
    38   33   40 1   
    39   34   35 1   
    40   34   36 1   
    41   41   42 1   
    42   41   45 1   
    43   42   43 1   
    44   42   46 1   
    45   42   47 1   
    46   43   44 2   
    47   43   48 1   
    48   48   49 1   
    49   48   56 1   
    50   49   50 1   
    51   49   52 1   
    52   49   57 1   
    53   50   51 2   
    54   50   62 1   
    55   52   53 1   
    56   52   58 1   
    57   52   59 1   
    58   53   54 1   
    59   53   55 2   
    60   54   60 1   
    61   54   61 1   
    62   62   63 1   
    63   62   66 1   
    64   63   64 1   
    65   63   67 1   
    66   63   68 1   
    67   64   65 2   
    68   64   69 1   
    69   69   70 1   
    70   69   76 1   
    71   70   71 1   
    72   70   73 1   
    73   70   77 1   
    74   71   72 2   
    75   71   83 1   
    76   73   74 1   
    77   73   75 1   
    78   73   78 1   
    79   74   80 1   
    80   74   81 1   
    81   74   82 1   
    82   75   79 1   
    83   83   84 1   
    84   83   91 1   
    85   84   85 1   
    86   84   87 1   
    87   84   92 1   
    88   85   86 2   
    89   85  102 1   
    90   87   88 1   
    91   87   89 1   
    92   87   93 1   
    93   88   90 1   
    94   88   94 1   
    95   88   95 1   
    96   89   96 1   
    97   89   97 1   
    98   89   98 1   
    99   90   99 1   
   100   90  100 1   
   101   90  101 1   
   102  102  103 1   
   103  102  110 1   
   104  103  104 1   
   105  103  106 1   
   106  103  111 1   
   107  104  105 2   
   108  104  114 1   
   109  106  107 1   
   110  106  112 1   
   111  106  113 1   
   112  107  108 1   
   113  107  109 1   
   114  114  115 1   
   115  114  125 1   
   116  115  116 1   
   117  115  118 1   
   118  115  126 1   
   119  116  117 2   
   120  116  134 1   
   121  118  119 1   
   122  118  127 1   
   123  118  128 1   
   124  119  120 ar  
   125  119  121 ar  
   126  120  122 ar  
   127  120  129 1   
   128  121  123 ar  
   129  121  130 1   
   130  122  124 ar  
   131  122  131 1   
   132  123  124 ar  
   133  123  132 1   
   134  124  133 1   
   135  134  135 1   
   136  134  140 1   
   137  135  136 1   
   138  135  138 1   
   139  135  141 1   
   140  136  137 2   
   141  136  148 1   
   142  138  139 1   
   143  138  142 1   
   144  138  143 1   
   145  139  140 1   
   146  139  144 1   
   147  139  145 1   
   148  140  146 1   
   149  140  147 1   
   150  148  149 1   
   151  148  157 1   
   152  149  150 1   
   153  149  152 1   
   154  149  158 1   
   155  150  151 2   
   156  150  163 1   
   157  152  153 1   
   158  152  159 1   
   159  152  160 1   
   160  153  154 1   
   161  153  161 1   
   162  153  162 1   
   163  154  155 1   
   164  154  156 1   
   165  163  164 1   
   166  163  168 1   
   167  164  165 1   
   168  164  166 1   
   169  164  167 1   
   170  170  171 1   
   171  170  172 1   
   172  173  174 1   
   173  173  175 1   
   174  176  177 1   
   175  176  178 1   
@<TRIPOS>SUBSTRUCTURE
     1 MOL         1 TEMP              0 ****  ****    0 ROOT
