@<TRIPOS>MOLECULE
MOL
  189   185     1     0     0
SMALL
resp


@<TRIPOS>ATOM
      1 C1          6.3920    3.7150   -3.8400 c3        1 MOL     -0.333936
      2 C2          6.4720    2.5820   -2.7460 c         1 MOL      0.823459
      3 O1          5.4810    2.4620   -1.9840 o         1 MOL     -0.719821
      4 H1          5.8140    3.3570   -4.6920 hc        1 MOL      0.076868
      5 H2          5.9070    4.5950   -3.4170 hc        1 MOL      0.076868
      6 H3          7.3980    3.9760   -4.1670 hc        1 MOL      0.076868
      7 N1          7.5530    1.8550   -2.6790 n         1 MOL     -0.686004
      8 C3          7.7500    0.6380   -1.9060 c3        1 MOL      0.061789
      9 C4          6.4980   -0.1550   -1.5450 c         1 MOL      0.374541
     10 O2          5.8390   -0.0610   -0.4780 o         1 MOL     -0.447432
     11 C5          8.7070    0.9380   -0.6800 c3        1 MOL     -0.037938
     12 C6          8.2920    2.1860    0.0670 c         1 MOL      0.752083
     13 O3          7.0950    2.4470    0.2970 o         1 MOL     -0.735213
     14 O4          9.1370    2.9460    0.4790 o         1 MOL     -0.735213
     15 H4          8.3450    2.0940   -3.2570 hn        1 MOL      0.369076
     16 H5          8.2810   -0.0340   -2.5850 h1        1 MOL      0.039111
     17 H6          9.7370    1.0050   -1.0380 hc        1 MOL      0.013056
     18 H7          8.7650    0.1080    0.0210 hc        1 MOL      0.013056
     19 N2          6.0350   -0.9280   -2.5220 n         1 MOL     -0.421222
     20 C7          4.9590   -1.9670   -2.4590 c3        1 MOL      0.013503
     21 C8          5.3000   -3.1260   -1.4820 c         1 MOL      0.393588
     22 O5          5.1890   -4.2630   -1.9200 o         1 MOL     -0.541755
     23 C9          3.4880   -1.4300   -2.3220 c3        1 MOL      0.516132
     24 C10         2.3830   -2.5220   -2.6680 c3        1 MOL     -0.229758
     25 C11         3.2500   -0.1240   -3.1870 c3        1 MOL     -0.019888
     26 C12         2.5590   -3.1590   -4.0740 c3        1 MOL     -0.195961
     27 H8          6.4940   -0.8360   -3.4150 hn        1 MOL      0.284552
     28 H9          5.0350   -2.4790   -3.4100 h1        1 MOL      0.038076
     29 H10         3.4160   -1.0770   -1.2930 hc        1 MOL     -0.345079
     30 H11         1.4170   -2.0350   -2.6720 hc        1 MOL      0.141095
     31 H12         2.4360   -3.2350   -1.8420 hc        1 MOL      0.141095
     32 H13         3.8930    0.7060   -2.8820 hc        1 MOL     -0.031368
     33 H14         3.5590   -0.4770   -4.1710 hc        1 MOL     -0.031368
     34 H15         2.1870    0.0970   -3.1900 hc        1 MOL     -0.031368
     35 H16         3.4640   -3.7600   -4.1600 hc        1 MOL      0.030102
     36 H17         1.6590   -3.7290   -4.2970 hc        1 MOL      0.030102
     37 H18         2.5730   -2.3750   -4.8340 hc        1 MOL      0.030102
     38 N3          5.6330   -2.9120   -0.2380 n         1 MOL     -0.098648
     39 C13         6.0280   -4.0820    0.5750 c3        1 MOL     -0.019679
     40 C14         5.0000   -5.1810    0.7600 c         1 MOL      0.553634
     41 O6          5.3850   -6.3680    0.6450 o         1 MOL     -0.600188
     42 C15         6.5400   -3.6150    1.9420 c3        1 MOL     -0.176135
     43 C16         7.7520   -2.6930    1.8070 c         1 MOL      0.718937
     44 O7          7.7280   -1.5300    2.3380 o         1 MOL     -0.705794
     45 O8          8.7270   -3.1850    1.1460 o         1 MOL     -0.705794
     46 H19         5.8860   -1.9860    0.0830 hn        1 MOL      0.207822
     47 H20         6.9120   -4.4750    0.0630 h1        1 MOL      0.058798
     48 H21         6.7750   -4.4880    2.5500 hc        1 MOL      0.031538
     49 H22         5.7520   -3.1760    2.5360 hc        1 MOL      0.031538
     50 N4          3.7880   -4.8970    1.1630 n         1 MOL     -0.482834
     51 C17         3.1320   -3.5570    1.3350 c3        1 MOL      0.188599
     52 C18         1.8530   -3.6500    2.2180 c         1 MOL      0.547413
     53 O9          1.3660   -4.7490    2.3660 o         1 MOL     -0.561286
     54 H23         3.2570   -5.6720    1.5330 hn        1 MOL      0.269544
     55 H24         2.8630   -3.3450    0.3000 h1        1 MOL      0.005480
     56 H25         3.8060   -2.7800    1.6930 h1        1 MOL      0.005480
     57 N5          1.3420   -2.5800    2.8220 n         1 MOL     -0.591843
     58 C19         1.9840   -1.2160    2.8200 c3        1 MOL      0.349601
     59 C20         2.2200   -0.6060    1.4340 c         1 MOL      0.322975
     60 O10         3.2950   -0.1060    1.0920 o         1 MOL     -0.557716
     61 C21         3.1760   -1.2560    3.8170 c3        1 MOL     -0.255091
     62 C22         3.4930    0.1890    4.2330 c         1 MOL      0.666946
     63 O11         4.6260    0.4060    4.6630 o         1 MOL     -0.672016
     64 O12         2.6390    1.1330    4.1060 o         1 MOL     -0.672016
     65 H26         0.4850   -2.5990    3.3490 hn        1 MOL      0.298534
     66 H27         1.2560   -0.4850    3.1460 h1        1 MOL      0.002372
     67 H28         4.0230   -1.8000    3.3970 hc        1 MOL      0.059426
     68 H29         2.7140   -1.7150    4.6860 hc        1 MOL      0.059426
     69 N6          1.2160   -0.6960    0.5320 n         1 MOL     -0.004256
     70 C23        -0.1800   -1.1420    0.8080 c3        1 MOL     -0.253642
     71 C24        -0.5180   -2.5450    0.3640 c         1 MOL      0.350580
     72 O13         0.1980   -3.2010   -0.3360 o         1 MOL     -0.467129
     73 H30         1.3770   -0.4580   -0.4300 hn        1 MOL      0.217263
     74 H31        -0.8030   -0.4060    0.2870 h1        1 MOL      0.126270
     75 H32        -0.4600   -0.9470    1.8420 h1        1 MOL      0.126270
     76 N7         -1.7080   -3.0180    0.7380 n         1 MOL     -0.302075
     77 C25        -2.2730   -4.2080    0.0290 c3        1 MOL      0.027592
     78 C26        -2.8620   -3.8240   -1.3440 c         1 MOL      0.484475
     79 O14        -2.9780   -4.7630   -2.1950 o         1 MOL     -0.536692
     80 C27        -3.3840   -4.7340    0.9680 c3        1 MOL     -0.103394
     81 C28        -4.5770   -3.7930    1.1690 c3        1 MOL     -0.034574
     82 C29        -5.7380   -4.5620    1.8400 c         1 MOL      0.671066
     83 N8         -5.5860   -4.9680    3.0840 n         1 MOL     -0.862472
     84 O15        -6.7960   -4.6310    1.2330 o         1 MOL     -0.535789
     85 H33        -2.2190   -2.3820    1.3280 hn        1 MOL      0.232576
     86 H34        -1.4640   -4.8830   -0.2270 h1        1 MOL      0.129820
     87 H35        -2.9220   -4.8740    1.9520 hc        1 MOL      0.031810
     88 H36        -3.7730   -5.6870    0.6180 hc        1 MOL      0.031810
     89 H37        -4.9580   -3.3560    0.2490 hc        1 MOL      0.024910
     90 H38        -4.2030   -3.0280    1.8400 hc        1 MOL      0.024910
     91 H39        -4.6600   -4.9870    3.4890 hn        1 MOL      0.386631
     92 H40        -6.4040   -5.2690    3.5830 hn        1 MOL      0.386631
     93 N9         -3.0840   -2.5250   -1.7120 n         1 MOL     -0.231066
     94 C30        -3.4580   -2.1560   -3.0750 c3        1 MOL     -0.153281
     95 C31        -4.8260   -1.3770   -3.2240 c         1 MOL      0.544939
     96 O16        -5.1700   -1.0780   -4.3430 o         1 MOL     -0.555389
     97 C32        -2.2510   -1.5610   -3.8060 c3        1 MOL      0.074632
     98 C33        -1.1660   -2.5890   -4.0450 c3        1 MOL     -0.208566
     99 C34        -1.5330   -0.4910   -2.8530 c3        1 MOL     -0.208566
    100 H41        -2.8700   -1.8460   -1.0010 hn        1 MOL      0.196166
    101 H42        -3.7740   -3.0150   -3.6770 h1        1 MOL      0.140465
    102 H43        -2.5370   -1.0790   -4.7440 hc        1 MOL      0.039893
    103 H44        -0.7750   -3.0490   -3.1380 hc        1 MOL      0.061925
    104 H45        -1.5820   -3.4100   -4.6240 hc        1 MOL      0.061925
    105 H46        -0.2920   -2.1850   -4.5720 hc        1 MOL      0.061925
    106 H47        -1.2180   -0.9960   -1.9440 hc        1 MOL      0.061925
    107 H48        -0.6360   -0.1000   -3.3110 hc        1 MOL      0.061925
    108 H49        -2.1690    0.3830   -2.7280 hc        1 MOL      0.061925
    109 N10        -5.5430   -1.0570   -2.1660 n         1 MOL     -0.372295
    110 C35        -6.8070   -0.4010   -2.1620 c3        1 MOL      0.043095
    111 C36        -6.7430    0.9600   -1.4510 c         1 MOL      0.580736
    112 O17        -7.6080    1.7890   -1.7790 o         1 MOL     -0.594632
    113 C37        -7.7770   -1.4020   -1.5050 c3        1 MOL     -0.157087
    114 C38        -8.0830   -2.6200   -2.3860 c         1 MOL      0.540266
    115 N11        -7.8320   -2.6150   -3.7030 n         1 MOL     -0.738123
    116 O18        -8.5460   -3.6580   -1.8760 o         1 MOL     -0.529597
    117 H50        -5.1460   -1.2370   -1.2510 hn        1 MOL      0.237557
    118 H51        -7.1510   -0.1960   -3.1680 h1        1 MOL      0.074939
    119 H52        -8.6940   -0.8640   -1.2610 hc        1 MOL      0.091535
    120 H53        -7.3890   -1.7960   -0.5610 hc        1 MOL      0.091535
    121 H54        -7.5560   -1.8170   -4.2610 hn        1 MOL      0.351182
    122 H55        -8.0370   -3.4750   -4.1910 hn        1 MOL      0.351182
    123 N12        -5.8170    1.3350   -0.5830 n         1 MOL     -0.477945
    124 C39        -5.8900    2.5580    0.2560 c3        1 MOL      0.259613
    125 C40        -4.4600    3.1160    0.5290 c         1 MOL      0.363127
    126 O19        -3.5450    2.3370    0.4830 o         1 MOL     -0.378350
    127 C41        -6.5330    2.1920    1.5900 c3        1 MOL     -0.207973
    128 C42        -7.5220    1.0680    1.7120 ca        1 MOL      0.121331
    129 C43        -8.7600    1.0090    1.1010 ca        1 MOL     -0.177876
    130 C44        -7.0870   -0.0610    2.3850 ca        1 MOL     -0.177876
    131 C45        -9.6720   -0.0450    1.2080 ca        1 MOL     -0.279500
    132 C46        -7.9610   -1.2110    2.4740 ca        1 MOL     -0.279500
    133 C47        -9.3030   -1.2050    1.9420 ca        1 MOL      0.333071
    134 O20       -10.0810   -2.3340    1.9350 oh        1 MOL     -0.523050
    135 H56        -5.0610    0.6990   -0.3970 hn        1 MOL      0.208528
    136 H57        -6.3830    3.3770   -0.2640 h1        1 MOL      0.030296
    137 H58        -7.0580    3.0580    1.9910 hc        1 MOL      0.094573
    138 H59        -5.7550    1.9740    2.3360 hc        1 MOL      0.094573
    139 H60        -8.9820    1.8760    0.4820 ha        1 MOL      0.137104
    140 H61        -6.1190   -0.1440    2.8690 ha        1 MOL      0.137104
    141 H62       -10.6220    0.0840    0.7200 ha        1 MOL      0.149564
    142 H63        -7.6560   -2.0160    3.1260 ha        1 MOL      0.149564
    143 H64       -11.0180   -2.3380    1.7240 ho        1 MOL      0.396071
    144 N13        -4.3570    4.4270    0.9510 n         1 MOL     -0.531058
    145 C48        -3.2160    5.2620    1.4160 c3        1 MOL      0.062300
    146 C49        -2.0840    5.5150    0.4040 c         1 MOL      0.248517
    147 O21        -1.4820    6.6140    0.3580 o         1 MOL     -0.491965
    148 C50        -2.6260    4.6760    2.6850 c3        1 MOL     -0.047761
    149 C51        -3.5840    4.3300    3.8210 c3        1 MOL     -0.260656
    150 C52        -2.8900    3.9430    5.1760 c         1 MOL      0.680031
    151 O22        -2.8230    2.6860    5.3840 o         1 MOL     -0.710588
    152 O23        -2.4730    4.7790    6.0420 o         1 MOL     -0.710588
    153 H65        -5.1740    4.9930    0.7310 hn        1 MOL      0.307025
    154 H66        -3.7220    6.1970    1.6550 h1        1 MOL      0.085269
    155 H67        -1.8140    5.2920    3.0610 hc        1 MOL      0.102879
    156 H68        -2.2860    3.6880    2.3790 hc        1 MOL      0.102879
    157 H69        -4.1370    3.4690    3.4580 hc        1 MOL      0.022012
    158 H70        -4.1520    5.2410    4.0400 hc        1 MOL      0.022012
    159 N14        -1.8920    4.6100   -0.5690 n         1 MOL     -0.146012
    160 C53        -0.7270    4.6840   -1.4780 c3        1 MOL     -0.276705
    161 C54        -0.8020    5.7230   -2.5720 c         1 MOL      0.412808
    162 O24         0.2340    6.2310   -3.0910 o         1 MOL     -0.530611
    163 C55        -0.3900    3.3270   -2.0990 c3        1 MOL      0.004407
    164 C56        -0.0250    2.2070   -1.1240 c3        1 MOL      0.272171
    165 C57         1.2610    2.5420   -0.2730 c         1 MOL      0.377211
    166 O25         1.2200    3.3440    0.6760 o         1 MOL     -0.561745
    167 O26         2.3010    1.8920   -0.5300 o         1 MOL     -0.561745
    168 H71        -2.5100    3.8080   -0.5300 hn        1 MOL      0.202191
    169 H72         0.1360    4.9740   -0.8840 h1        1 MOL      0.265103
    170 H73         0.4910    3.5100   -2.7230 hc        1 MOL      0.019801
    171 H74        -1.1020    2.9080   -2.8060 hc        1 MOL      0.019801
    172 H75         0.1590    1.3180   -1.7300 hc        1 MOL     -0.140980
    173 H76        -0.9160    1.9730   -0.5410 hc        1 MOL     -0.140980
    174 N15        -2.0360    6.1290   -2.8810 n         1 MOL     -0.171459
    175 C58        -2.4660    7.0390   -4.0120 c3        1 MOL     -0.094414
    176 H77        -3.0560    6.4700   -4.7310 h1        1 MOL      0.057562
    177 H78        -3.0700    7.8550   -3.6130 h1        1 MOL      0.057562
    178 H79        -1.5850    7.4470   -4.5070 h1        1 MOL      0.057562
    179 H80        -2.8080    5.6500   -2.4500 hn        1 MOL      0.193185
    180 Ca1         4.5840    1.9990    0.4640 Ca        1 MOL      1.827257
    181 O27         4.3810    3.1230    2.8700 oh        1 MOL     -0.902189
    182 H81         4.4420    4.0650    3.0070 ho        1 MOL      0.424559
    183 H82         4.0550    2.7880    3.7080 ho        1 MOL      0.424559
    184 O28         3.8600    4.6600    0.0350 oh        1 MOL     -0.902189
    185 H83         3.1090    5.1260   -0.3510 ho        1 MOL      0.424559
    186 H84         4.5940    5.2700   -0.0680 ho        1 MOL      0.424559
    187 O29         5.8820    0.6500    2.4100 oh        1 MOL     -0.902189
    188 H85         5.4890    0.5420    3.2740 ho        1 MOL      0.424559
    189 H86         6.5140   -0.0680    2.3450 ho        1 MOL      0.424559
@<TRIPOS>BOND
     1    1    2 1   
     2    1    4 1   
     3    1    5 1   
     4    1    6 1   
     5    2    3 2   
     6    2    7 1   
     7    7    8 1   
     8    7   15 1   
     9    8    9 1   
    10    8   11 1   
    11    8   16 1   
    12    9   10 2   
    13    9   19 1   
    14   11   12 1   
    15   11   17 1   
    16   11   18 1   
    17   12   13 1   
    18   12   14 1   
    19   19   20 1   
    20   19   27 1   
    21   20   21 1   
    22   20   23 1   
    23   20   28 1   
    24   21   22 2   
    25   21   38 1   
    26   23   24 1   
    27   23   25 1   
    28   23   29 1   
    29   24   26 1   
    30   24   30 1   
    31   24   31 1   
    32   25   32 1   
    33   25   33 1   
    34   25   34 1   
    35   26   35 1   
    36   26   36 1   
    37   26   37 1   
    38   38   39 1   
    39   38   46 1   
    40   39   40 1   
    41   39   42 1   
    42   39   47 1   
    43   40   41 2   
    44   40   50 1   
    45   42   43 1   
    46   42   48 1   
    47   42   49 1   
    48   43   44 1   
    49   43   45 1   
    50   50   51 1   
    51   50   54 1   
    52   51   52 1   
    53   51   55 1   
    54   51   56 1   
    55   52   53 2   
    56   52   57 1   
    57   57   58 1   
    58   57   65 1   
    59   58   59 1   
    60   58   61 1   
    61   58   66 1   
    62   59   60 2   
    63   59   69 1   
    64   61   62 1   
    65   61   67 1   
    66   61   68 1   
    67   62   63 1   
    68   62   64 1   
    69   69   70 1   
    70   69   73 1   
    71   70   71 1   
    72   70   74 1   
    73   70   75 1   
    74   71   72 2   
    75   71   76 1   
    76   76   77 1   
    77   76   85 1   
    78   77   78 1   
    79   77   80 1   
    80   77   86 1   
    81   78   79 2   
    82   78   93 1   
    83   80   81 1   
    84   80   87 1   
    85   80   88 1   
    86   81   82 1   
    87   81   89 1   
    88   81   90 1   
    89   82   83 1   
    90   82   84 2   
    91   83   91 1   
    92   83   92 1   
    93   93   94 1   
    94   93  100 1   
    95   94   95 1   
    96   94   97 1   
    97   94  101 1   
    98   95   96 2   
    99   95  109 1   
   100   97   98 1   
   101   97   99 1   
   102   97  102 1   
   103   98  103 1   
   104   98  104 1   
   105   98  105 1   
   106   99  106 1   
   107   99  107 1   
   108   99  108 1   
   109  109  110 1   
   110  109  117 1   
   111  110  111 1   
   112  110  113 1   
   113  110  118 1   
   114  111  112 2   
   115  111  123 1   
   116  113  114 1   
   117  113  119 1   
   118  113  120 1   
   119  114  115 1   
   120  114  116 2   
   121  115  121 1   
   122  115  122 1   
   123  123  124 1   
   124  123  135 1   
   125  124  125 1   
   126  124  127 1   
   127  124  136 1   
   128  125  126 2   
   129  125  144 1   
   130  127  128 1   
   131  127  137 1   
   132  127  138 1   
   133  128  129 ar  
   134  128  130 ar  
   135  129  131 ar  
   136  129  139 1   
   137  130  132 ar  
   138  130  140 1   
   139  131  133 ar  
   140  131  141 1   
   141  132  133 ar  
   142  132  142 1   
   143  133  134 1   
   144  134  143 1   
   145  144  145 1   
   146  144  153 1   
   147  145  146 1   
   148  145  148 1   
   149  145  154 1   
   150  146  147 2   
   151  146  159 1   
   152  148  149 1   
   153  148  155 1   
   154  148  156 1   
   155  149  150 1   
   156  149  157 1   
   157  149  158 1   
   158  150  151 1   
   159  150  152 1   
   160  159  160 1   
   161  159  168 1   
   162  160  161 1   
   163  160  163 1   
   164  160  169 1   
   165  161  162 2   
   166  161  174 1   
   167  163  164 1   
   168  163  170 1   
   169  163  171 1   
   170  164  165 1   
   171  164  172 1   
   172  164  173 1   
   173  165  166 1   
   174  165  167 1   
   175  174  175 1   
   176  174  179 1   
   177  175  176 1   
   178  175  177 1   
   179  175  178 1   
   180  181  182 1   
   181  181  183 1   
   182  184  185 1   
   183  184  186 1   
   184  187  188 1   
   185  187  189 1   
@<TRIPOS>SUBSTRUCTURE
     1 MOL         1 TEMP              0 ****  ****    0 ROOT
