@<TRIPOS>MOLECULE
MOL
  175   173     1     0     0
SMALL
resp


@<TRIPOS>ATOM
      1 C1         -6.0280    7.9010    1.8860 c3        1 MOL     -0.357074
      2 C2         -6.9980    7.4230    0.8450 c         1 MOL      0.675158
      3 O1         -7.1620    7.9890   -0.2400 o         1 MOL     -0.593241
      4 H1         -6.5110    7.8920    2.8640 hc        1 MOL      0.084086
      5 H2         -5.1600    7.2410    1.9050 hc        1 MOL      0.084086
      6 H3         -5.7100    8.9160    1.6480 hc        1 MOL      0.084086
      7 N1         -7.6520    6.3050    1.0900 n         1 MOL     -0.486214
      8 C3         -8.6240    5.6420    0.1680 c3        1 MOL      0.129708
      9 C4         -7.9800    4.5740   -0.7310 c         1 MOL      0.577249
     10 O2         -8.3890    4.3420   -1.8610 o         1 MOL     -0.524907
     11 C5         -9.6750    4.9210    1.0440 c3        1 MOL     -0.295489
     12 C6        -10.8830    4.2870    0.3160 c         1 MOL      0.796479
     13 O3        -11.5110    3.5090    0.9630 o         1 MOL     -0.743489
     14 O4        -11.1950    4.6070   -0.8370 o         1 MOL     -0.743489
     15 H4         -7.5130    5.8690    1.9960 hn        1 MOL      0.268703
     16 H5         -9.0980    6.4500   -0.3900 h1        1 MOL      0.076013
     17 H6        -10.1060    5.6050    1.7740 hc        1 MOL      0.028043
     18 H7         -9.1250    4.2620    1.7220 hc        1 MOL      0.028043
     19 N2         -6.8190    4.1160   -0.2100 n         1 MOL     -0.574164
     20 C7         -5.7840    3.2860   -0.8600 c3        1 MOL      0.270810
     21 C8         -5.0350    2.4070    0.1180 c         1 MOL      0.552810
     22 O5         -4.6670    2.8590    1.1920 o         1 MOL     -0.563448
     23 C9         -4.7770    4.2670   -1.4530 c3        1 MOL     -0.325789
     24 H8         -6.6360    4.4280    0.7300 hn        1 MOL      0.265244
     25 H9         -6.1720    2.6810   -1.6740 h1        1 MOL      0.046755
     26 H10        -4.1210    3.6070   -2.0350 hc        1 MOL      0.095633
     27 H11        -5.2880    4.9590   -2.1130 hc        1 MOL      0.095633
     28 H12        -4.3130    4.8400   -0.6460 hc        1 MOL      0.095633
     29 N3         -4.7810    1.1010   -0.0400 n         1 MOL     -0.484584
     30 C10        -5.3300    0.1900   -1.0810 c3        1 MOL      0.011928
     31 C11        -5.5740   -1.2440   -0.4590 c         1 MOL      0.510731
     32 O6         -4.7370   -1.7010    0.3850 o         1 MOL     -0.551621
     33 C12        -4.4590    0.2070   -2.3220 c3        1 MOL     -0.175245
     34 C13        -3.0940   -0.3050   -2.0040 c         1 MOL      0.690806
     35 O7         -2.2840    0.4080   -1.3290 o         1 MOL     -0.725051
     36 O8         -2.7900   -1.4520   -2.2990 o         1 MOL     -0.725051
     37 H13        -4.1680    0.7410    0.6760 hn        1 MOL      0.316041
     38 H14        -6.3440    0.4800   -1.3440 h1        1 MOL      0.049478
     39 H15        -4.4900    1.1850   -2.7900 hc        1 MOL      0.049023
     40 H16        -5.0110   -0.5400   -2.9030 hc        1 MOL      0.049023
     41 N4         -6.5890   -1.9630   -0.9000 n         1 MOL     -0.398920
     42 C14        -6.8820   -3.3040   -0.3750 c3        1 MOL      0.072919
     43 C15        -6.8020   -4.4230   -1.4260 c         1 MOL      0.451554
     44 O9         -7.7750   -4.9260   -2.0120 o         1 MOL     -0.553616
     45 H17        -7.2060   -1.5560   -1.5830 hn        1 MOL      0.323206
     46 H18        -7.8840   -3.2570    0.0490 h1        1 MOL      0.053694
     47 H19        -6.1910   -3.5370    0.4270 h1        1 MOL      0.053694
     48 N5         -5.6220   -4.9630   -1.7060 n         1 MOL     -0.386245
     49 C16        -4.2910   -4.6330   -1.1920 c3        1 MOL      0.039300
     50 C17        -3.9110   -5.2020    0.1450 c         1 MOL      0.542304
     51 O10        -3.9040   -6.4590    0.2610 o         1 MOL     -0.567523
     52 C18        -3.2970   -4.9830   -2.3700 c3        1 MOL     -0.296356
     53 C19        -1.8810   -4.4930   -1.9840 c         1 MOL      0.718741
     54 N6         -1.0100   -4.6880   -2.8940 n         1 MOL     -0.674905
     55 O11        -1.6110   -3.8840   -0.9500 o         1 MOL     -0.650179
     56 H20        -5.6180   -5.6810   -2.4160 hn        1 MOL      0.294816
     57 H21        -4.2660   -3.5400   -1.1440 h1        1 MOL      0.120752
     58 H22        -3.5530   -4.5010   -3.3120 hc        1 MOL      0.088947
     59 H23        -3.2230   -6.0670   -2.4860 hc        1 MOL      0.088947
     60 H24        -1.2630   -5.1650   -3.7460 hn        1 MOL      0.333918
     61 H25        -0.1040   -4.2850   -2.6950 hn        1 MOL      0.333918
     62 N7         -3.8330   -4.4310    1.2010 n         1 MOL     -0.289194
     63 C20        -3.6140   -4.8960    2.5880 c3        1 MOL     -0.327174
     64 C21        -2.1430   -5.0830    2.8520 c         1 MOL      0.566878
     65 O12        -1.7790   -5.7010    3.8370 o         1 MOL     -0.589604
     66 H26        -3.7510   -3.4380    1.0380 hn        1 MOL      0.303795
     67 H27        -4.1710   -5.8150    2.7350 h1        1 MOL      0.160785
     68 H28        -4.0270   -4.1830    3.3080 h1        1 MOL      0.160785
     69 N8         -1.2330   -4.6260    1.9540 n         1 MOL     -0.134335
     70 C22         0.2060   -4.9590    2.0850 c3        1 MOL     -0.340907
     71 C23         0.9890   -3.7230    1.8530 c         1 MOL      0.482401
     72 O13         0.6220   -2.9190    1.0270 o         1 MOL     -0.471740
     73 C24         0.4850   -6.1290    1.0730 c3        1 MOL      0.619626
     74 C25         1.8660   -6.7070    1.1050 c3        1 MOL     -0.365899
     75 O14        -0.2990   -7.2400    1.3920 oh        1 MOL     -0.652762
     76 H29        -1.5390   -4.1580    1.1100 hn        1 MOL      0.075691
     77 H30         0.4640   -5.2600    3.0970 h1        1 MOL      0.103873
     78 H31         0.2160   -5.8280    0.0700 h1        1 MOL      0.022592
     79 H32        -0.5290   -7.1100    2.3160 ho        1 MOL      0.383059
     80 H33         2.0210   -7.0900    2.1170 hc        1 MOL      0.070168
     81 H34         1.9300   -7.5990    0.4790 hc        1 MOL      0.070168
     82 H35         2.5690   -5.9260    0.7930 hc        1 MOL      0.070168
     83 N9          2.2760   -3.6220    2.2970 n         1 MOL     -0.041247
     84 C26         3.1810   -2.5270    2.0920 c3        1 MOL     -0.309230
     85 C27         4.0370   -2.7510    0.8780 c         1 MOL      0.294917
     86 O15         4.9320   -3.5050    1.0200 o         1 MOL     -0.550814
     87 C28         3.9670   -2.1730    3.3520 c3        1 MOL      0.446386
     88 C29         4.6130   -0.7740    3.2160 c3        1 MOL     -0.019315
     89 C30         3.0830   -2.0450    4.6420 c3        1 MOL     -0.436987
     90 C31         5.4790   -0.3190    4.4230 c3        1 MOL     -0.382753
     91 H36         2.4970   -4.3060    3.0070 hn        1 MOL      0.169929
     92 H37         2.5440   -1.6960    1.7770 h1        1 MOL      0.066938
     93 H38         4.7040   -2.9150    3.6390 hc        1 MOL     -0.021845
     94 H39         3.8720    0.0130    3.0560 hc        1 MOL      0.053292
     95 H40         5.3530   -0.7970    2.4110 hc        1 MOL      0.053292
     96 H41         3.6720   -2.4660    5.4640 hc        1 MOL      0.087536
     97 H42         2.6980   -1.0400    4.8120 hc        1 MOL      0.087536
     98 H43         2.1820   -2.6470    4.5940 hc        1 MOL      0.087536
     99 H44         6.0170   -1.1770    4.8160 hc        1 MOL      0.087539
    100 H45         6.0650    0.5310    4.0530 hc        1 MOL      0.087539
    101 H46         4.8310    0.1390    5.1710 hc        1 MOL      0.087539
    102 N10         3.8800   -2.0300   -0.2390 n         1 MOL     -0.146395
    103 C32         4.5570   -2.4050   -1.5330 c3        1 MOL      0.238910
    104 C33         5.5400   -1.3810   -2.0620 c         1 MOL      0.410853
    105 O16         5.9260   -1.3960   -3.1970 o         1 MOL     -0.525616
    106 C34         3.5550   -2.7430   -2.5380 c3        1 MOL     -0.287152
    107 C35         2.3110   -3.4990   -2.0270 c         1 MOL      0.798423
    108 O17         2.3490   -4.6350   -1.4860 o         1 MOL     -0.707174
    109 O18         1.2050   -2.9810   -2.2720 o         1 MOL     -0.707174
    110 H47         3.2470   -1.2330   -0.2560 hn        1 MOL      0.182569
    111 H48         5.0770   -3.3500   -1.3910 h1        1 MOL      0.060250
    112 H49         3.9970   -3.3010   -3.3640 hc        1 MOL      0.049809
    113 H50         3.2630   -1.7510   -2.8920 hc        1 MOL      0.049809
    114 N11         5.9840   -0.4440   -1.1930 n         1 MOL     -0.461657
    115 C36         6.8140    0.7300   -1.5540 c3        1 MOL      0.498096
    116 C37         6.3880    1.9430   -0.7710 c         1 MOL      0.332300
    117 O19         6.0080    1.7600    0.3990 o         1 MOL     -0.531669
    118 C38         8.2340    0.2410   -1.2080 c3        1 MOL     -0.368513
    119 C39         9.2670    1.3690   -1.1940 ca        1 MOL      0.189873
    120 C40        10.0770    1.5370   -0.0520 ca        1 MOL     -0.212980
    121 C41         9.5510    2.1810   -2.3560 ca        1 MOL     -0.212980
    122 C42        11.0890    2.4750    0.0300 ca        1 MOL     -0.065686
    123 C43        10.5720    3.1650   -2.2710 ca        1 MOL     -0.065686
    124 C44        11.4360    3.2130   -1.0750 ca        1 MOL     -0.187676
    125 H51         5.7230   -0.5470   -0.2160 hn        1 MOL      0.187597
    126 H52         6.7550    0.8790   -2.6370 h1        1 MOL     -0.043990
    127 H53         8.5000   -0.4330   -2.0260 hc        1 MOL      0.125464
    128 H54         8.3150   -0.2960   -0.2660 hc        1 MOL      0.125464
    129 H55         9.9740    0.9400    0.8310 ha        1 MOL      0.125767
    130 H56         8.9840    2.1090   -3.2780 ha        1 MOL      0.125767
    131 H57        11.6270    2.6830    0.9420 ha        1 MOL      0.101032
    132 H58        10.8790    3.7650   -3.1190 ha        1 MOL      0.101032
    133 H59        12.2730    3.8900   -1.0610 ha        1 MOL      0.117584
    134 N12         6.3270    3.1620   -1.2900 n         1 MOL     -0.076337
    135 C45         6.3660    4.4440   -0.6020 c3        1 MOL     -0.196775
    136 C46         5.1210    4.8210    0.2310 c         1 MOL      0.572859
    137 O20         5.0810    5.8560    0.8140 o         1 MOL     -0.574818
    138 C47         6.5850    5.5170   -1.6390 c3        1 MOL     -0.016654
    139 C48         5.9850    4.8050   -2.8330 c3        1 MOL     -0.031961
    140 C49         6.3200    3.3480   -2.7500 c3        1 MOL     -0.209118
    141 H60         7.2310    4.4790    0.0650 h1        1 MOL      0.121230
    142 H61         6.0600    6.4660   -1.5170 hc        1 MOL      0.049308
    143 H62         7.6250    5.7870   -1.7620 hc        1 MOL      0.049308
    144 H63         4.8950    4.8750   -2.7140 hc        1 MOL      0.035201
    145 H64         6.2830    5.1950   -3.8080 hc        1 MOL      0.035201
    146 H65         5.5470    2.7910   -3.2840 h1        1 MOL      0.110044
    147 H66         7.2840    3.2650   -3.2370 h1        1 MOL      0.110044
    148 N13         4.1110    3.9810    0.3320 n         1 MOL     -0.249316
    149 C50         2.7970    4.0700    1.0500 c3        1 MOL     -0.277926
    150 C51         2.8780    4.3930    2.4780 c         1 MOL      0.531198
    151 O21         1.8130    4.7390    3.0430 o         1 MOL     -0.528628
    152 C52         1.8530    2.9320    0.6950 c3        1 MOL     -0.089090
    153 C53         2.3150    1.5480    1.1160 c3        1 MOL      0.060474
    154 C54         1.4870    0.4750    0.4130 c         1 MOL      0.623442
    155 O22         1.9330   -0.1090   -0.5730 o         1 MOL     -0.724352
    156 O23         0.3460    0.1960    0.8020 o         1 MOL     -0.724352
    157 H67         4.3580    3.0410    0.0170 hn        1 MOL      0.217556
    158 H68         2.2690    4.9520    0.6830 h1        1 MOL      0.163423
    159 H69         1.5460    2.7630   -0.3440 hc        1 MOL      0.075800
    160 H70         0.8890    3.0760    1.1740 hc        1 MOL      0.075800
    161 H71         2.2370    1.3590    2.1910 hc        1 MOL     -0.003651
    162 H72         3.3630    1.3920    0.8660 hc        1 MOL     -0.003651
    163 N14         4.0520    4.1380    3.0960 n         1 MOL     -0.193827
    164 C55         4.3230    4.4060    4.5040 c3        1 MOL     -0.114113
    165 H73         3.3930    4.6680    5.0100 h1        1 MOL      0.062589
    166 H74         4.7500    3.5160    4.9670 h1        1 MOL      0.062589
    167 H75         5.0270    5.2330    4.5880 h1        1 MOL      0.062589
    168 H76         4.8520    3.6890    2.6680 hn        1 MOL      0.234294
    169 Ca1        -0.5200   -1.4720   -0.9660 Ca        1 MOL      1.714521
    170 O24        -2.1950   -1.6650    1.2110 oh        1 MOL     -0.856316
    171 H77        -1.8990   -1.1390    1.9450 ho        1 MOL      0.411502
    172 H78        -3.0880   -1.3680    1.0370 ho        1 MOL      0.411502
    173 O25        -0.0120   -0.3210   -3.2140 oh        1 MOL     -0.856316
    174 H79        -0.6310    0.4090   -3.2040 ho        1 MOL      0.411502
    175 H80         0.7780    0.0560   -3.6060 ho        1 MOL      0.411502
@<TRIPOS>BOND
     1    1    2 1   
     2    1    4 1   
     3    1    5 1   
     4    1    6 1   
     5    2    3 2   
     6    2    7 1   
     7    7    8 1   
     8    7   15 1   
     9    8    9 1   
    10    8   11 1   
    11    8   16 1   
    12    9   10 2   
    13    9   19 1   
    14   11   12 1   
    15   11   17 1   
    16   11   18 1   
    17   12   13 1   
    18   12   14 1   
    19   19   20 1   
    20   19   24 1   
    21   20   21 1   
    22   20   23 1   
    23   20   25 1   
    24   21   22 2   
    25   21   29 1   
    26   23   26 1   
    27   23   27 1   
    28   23   28 1   
    29   29   30 1   
    30   29   37 1   
    31   30   31 1   
    32   30   33 1   
    33   30   38 1   
    34   31   32 2   
    35   31   41 1   
    36   33   34 1   
    37   33   39 1   
    38   33   40 1   
    39   34   35 1   
    40   34   36 1   
    41   41   42 1   
    42   41   45 1   
    43   42   43 1   
    44   42   46 1   
    45   42   47 1   
    46   43   44 2   
    47   43   48 1   
    48   48   49 1   
    49   48   56 1   
    50   49   50 1   
    51   49   52 1   
    52   49   57 1   
    53   50   51 2   
    54   50   62 1   
    55   52   53 1   
    56   52   58 1   
    57   52   59 1   
    58   53   54 1   
    59   53   55 2   
    60   54   60 1   
    61   54   61 1   
    62   62   63 1   
    63   62   66 1   
    64   63   64 1   
    65   63   67 1   
    66   63   68 1   
    67   64   65 2   
    68   64   69 1   
    69   69   70 1   
    70   69   76 1   
    71   70   71 1   
    72   70   73 1   
    73   70   77 1   
    74   71   72 2   
    75   71   83 1   
    76   73   74 1   
    77   73   75 1   
    78   73   78 1   
    79   74   80 1   
    80   74   81 1   
    81   74   82 1   
    82   75   79 1   
    83   83   84 1   
    84   83   91 1   
    85   84   85 1   
    86   84   87 1   
    87   84   92 1   
    88   85   86 2   
    89   85  102 1   
    90   87   88 1   
    91   87   89 1   
    92   87   93 1   
    93   88   90 1   
    94   88   94 1   
    95   88   95 1   
    96   89   96 1   
    97   89   97 1   
    98   89   98 1   
    99   90   99 1   
   100   90  100 1   
   101   90  101 1   
   102  102  103 1   
   103  102  110 1   
   104  103  104 1   
   105  103  106 1   
   106  103  111 1   
   107  104  105 2   
   108  104  114 1   
   109  106  107 1   
   110  106  112 1   
   111  106  113 1   
   112  107  108 1   
   113  107  109 1   
   114  114  115 1   
   115  114  125 1   
   116  115  116 1   
   117  115  118 1   
   118  115  126 1   
   119  116  117 2   
   120  116  134 1   
   121  118  119 1   
   122  118  127 1   
   123  118  128 1   
   124  119  120 ar  
   125  119  121 ar  
   126  120  122 ar  
   127  120  129 1   
   128  121  123 ar  
   129  121  130 1   
   130  122  124 ar  
   131  122  131 1   
   132  123  124 ar  
   133  123  132 1   
   134  124  133 1   
   135  134  135 1   
   136  134  140 1   
   137  135  136 1   
   138  135  138 1   
   139  135  141 1   
   140  136  137 2   
   141  136  148 1   
   142  138  139 1   
   143  138  142 1   
   144  138  143 1   
   145  139  140 1   
   146  139  144 1   
   147  139  145 1   
   148  140  146 1   
   149  140  147 1   
   150  148  149 1   
   151  148  157 1   
   152  149  150 1   
   153  149  152 1   
   154  149  158 1   
   155  150  151 2   
   156  150  163 1   
   157  152  153 1   
   158  152  159 1   
   159  152  160 1   
   160  153  154 1   
   161  153  161 1   
   162  153  162 1   
   163  154  155 1   
   164  154  156 1   
   165  163  164 1   
   166  163  168 1   
   167  164  165 1   
   168  164  166 1   
   169  164  167 1   
   170  170  171 1   
   171  170  172 1   
   172  173  174 1   
   173  173  175 1   
@<TRIPOS>SUBSTRUCTURE
     1 MOL         1 TEMP              0 ****  ****    0 ROOT
