@<TRIPOS>MOLECULE
MOL
  192   187     1     0     0
SMALL
resp


@<TRIPOS>ATOM
      1 C1         -5.0750   -5.9450    2.8430 c3        1 MOL     -0.266204
      2 C2         -4.8630   -4.5980    2.0310 c         1 MOL      0.735710
      3 O1         -4.5280   -4.7390    0.8640 o         1 MOL     -0.625961
      4 H1         -5.3120   -6.7520    2.1500 hc        1 MOL      0.058340
      5 H2         -4.1640   -6.1890    3.3870 hc        1 MOL      0.058340
      6 H3         -5.8970   -5.8190    3.5480 hc        1 MOL      0.058340
      7 N1         -4.9210   -3.4590    2.6370 n         1 MOL     -0.492049
      8 C3         -4.8210   -2.1480    1.9960 c3        1 MOL      0.049695
      9 C4         -3.3860   -1.8000    1.4690 c         1 MOL      0.011928
     10 O2         -3.1550   -0.8560    0.7790 o         1 MOL     -0.294573
     11 C5         -5.3920   -0.9880    2.8010 c3        1 MOL     -0.114300
     12 C6         -5.3840   -1.1540    4.3200 c         1 MOL      0.717840
     13 O3         -4.8620   -0.2310    5.0010 o         1 MOL     -0.735753
     14 O4         -5.9500   -2.1370    4.7890 o         1 MOL     -0.735753
     15 H4         -5.2850   -3.4810    3.5780 hn        1 MOL      0.304017
     16 H5         -5.3770   -2.2010    1.0610 h1        1 MOL      0.082415
     17 H6         -6.4370   -0.8060    2.5490 hc        1 MOL      0.066883
     18 H7         -4.8620   -0.0660    2.5620 hc        1 MOL      0.066883
     19 N2         -2.3390   -2.5190    1.9740 n         1 MOL     -0.040440
     20 C7         -0.9160   -2.2640    1.8800 c3        1 MOL      0.024219
     21 C8         -0.2410   -3.0880    0.7930 c         1 MOL      0.346147
     22 O5         -0.4440   -4.3140    0.7380 o         1 MOL     -0.546736
     23 C9         -0.2120   -2.4670    3.2150 c3        1 MOL      0.077964
     24 C10        -0.9720   -1.9000    4.4920 c3        1 MOL     -0.017045
     25 C11        -0.1050   -2.0440    5.7870 c3        1 MOL      0.076539
     26 C12        -0.8490   -1.5280    6.9840 c3        1 MOL      0.088983
     27 N3         -0.0430   -1.5660    8.2160 n4        1 MOL     -0.334236
     28 H8         -2.5370   -3.3190    2.5440 hn        1 MOL      0.179650
     29 H9         -0.7210   -1.2220    1.6050 h1        1 MOL      0.230285
     30 H10         0.7310   -1.9440    3.1250 hc        1 MOL     -0.008251
     31 H11         0.0750   -3.5140    3.2670 hc        1 MOL     -0.008251
     32 H12        -1.9460   -2.3820    4.6070 hc        1 MOL     -0.011690
     33 H13        -1.1170   -0.8380    4.2640 hc        1 MOL     -0.011690
     34 H14         0.8990   -1.6250    5.7170 hc        1 MOL     -0.013745
     35 H15        -0.0290   -3.1190    5.9350 hc        1 MOL     -0.013745
     36 H16        -1.6570   -2.2330    7.2020 hx        1 MOL      0.079808
     37 H17        -1.2260   -0.5090    6.8680 hx        1 MOL      0.079808
     38 H18         0.7350   -0.9490    8.0200 hn        1 MOL      0.315322
     39 H19        -0.5940   -1.4770    9.0500 hn        1 MOL      0.315322
     40 H20         0.3660   -2.4880    8.2770 hn        1 MOL      0.315322
     41 N4          0.5750   -2.6680   -0.1140 n         1 MOL     -0.158265
     42 C13         1.0970   -1.3760   -0.4800 c3        1 MOL     -0.046580
     43 C14         1.8410   -0.6590    0.6390 c         1 MOL      0.002373
     44 O6          1.2850    0.2780    1.1840 o         1 MOL     -0.218876
     45 C15        -0.0320   -0.5720   -1.1370 c3        1 MOL     -0.098147
     46 C16        -0.7410   -1.1660   -2.3940 c         1 MOL      0.654017
     47 O7         -0.2270   -2.1380   -3.0550 o         1 MOL     -0.801009
     48 O8         -1.6470   -0.5310   -2.9270 o         1 MOL     -0.801009
     49 H21         0.7840   -3.4330   -0.7450 hn        1 MOL      0.250951
     50 H22         1.8170   -1.5800   -1.2700 h1        1 MOL      0.070561
     51 H23         0.3740    0.4090   -1.3930 hc        1 MOL      0.099817
     52 H24        -0.7840   -0.2710   -0.4070 hc        1 MOL      0.099817
     53 N5          3.0270   -1.0570    1.0700 n         1 MOL     -0.121850
     54 C17         3.8810   -2.1570    0.6930 c3        1 MOL     -0.040762
     55 C18         4.8650   -2.7620    1.7870 c         1 MOL      0.561113
     56 O9          4.7650   -2.4500    2.9990 o         1 MOL     -0.544661
     57 H25         3.3650   -0.5250    1.8690 hn        1 MOL      0.245072
     58 H26         4.4210   -1.7960   -0.1870 h1        1 MOL      0.035960
     59 H27         3.2920   -2.9720    0.2690 h1        1 MOL      0.035960
     60 N6          5.7530   -3.7300    1.5210 n         1 MOL     -0.492397
     61 C19         6.2430   -3.9920    0.1310 c3        1 MOL      0.046082
     62 C20         7.1620   -2.9470   -0.5120 c         1 MOL      0.422098
     63 O10         7.9570   -2.3530    0.2330 o         1 MOL     -0.437833
     64 C21         6.8930   -5.3230    0.0970 c3        1 MOL     -0.083951
     65 C22         8.0760   -5.6480    1.0610 c         1 MOL      0.726664
     66 O11         7.7860   -5.9390    2.2250 o         1 MOL     -0.664011
     67 O12         9.2490   -5.6750    0.6260 o         1 MOL     -0.664011
     68 H28         6.2910   -4.0690    2.3110 hn        1 MOL      0.332734
     69 H29         5.3630   -4.0400   -0.5090 h1        1 MOL      0.026654
     70 H30         7.2440   -5.4850   -0.9260 hc        1 MOL     -0.008486
     71 H31         6.1530   -6.1160    0.2290 hc        1 MOL     -0.008486
     72 N7          7.1310   -2.7220   -1.8410 n         1 MOL     -0.242188
     73 C23         7.9720   -1.7850   -2.6070 c3        1 MOL     -0.364953
     74 C24         7.5330   -0.3230   -2.4300 c         1 MOL      0.575498
     75 O13         8.4550    0.4770   -2.5280 o         1 MOL     -0.528358
     76 H32         6.3590   -3.1260   -2.3490 hn        1 MOL      0.204503
     77 H33         7.9020   -2.0580   -3.6670 h1        1 MOL      0.177930
     78 H34         8.9970   -1.9450   -2.2970 h1        1 MOL      0.177930
     79 N8          6.2700   -0.0360   -2.1870 n         1 MOL     -0.364814
     80 C25         5.6520    1.2800   -2.1430 c3        1 MOL      0.107394
     81 C26         5.5470    1.8500   -0.7200 c         1 MOL      0.655522
     82 O14         5.7530    1.1990    0.2430 o         1 MOL     -0.516167
     83 C27         4.3160    1.4580   -2.8990 c3        1 MOL      0.370098
     84 C28         3.2620    0.6110   -2.2410 c3        1 MOL     -0.816828
     85 O15         4.4990    1.1810   -4.2520 oh        1 MOL     -0.644582
     86 H35         5.6610   -0.8470   -2.1820 hn        1 MOL      0.261481
     87 H36         6.4350    1.9340   -2.5430 h1        1 MOL      0.022358
     88 H37         4.0250    2.5120   -2.9280 h1        1 MOL      0.011538
     89 H38         3.7890    1.6320   -4.7130 ho        1 MOL      0.383964
     90 H39         3.4250   -0.4630   -2.3330 hc        1 MOL      0.207417
     91 H40         3.1090    0.8230   -1.1890 hc        1 MOL      0.207417
     92 H41         2.3240    0.8780   -2.7200 hc        1 MOL      0.207417
     93 N9          5.3440    3.1540   -0.6040 n         1 MOL     -0.625535
     94 C29         5.3470    3.8740    0.7430 c3        1 MOL      0.229398
     95 C30         3.8840    4.1380    1.1210 c         1 MOL      0.538963
     96 O16         3.4730    3.8020    2.2260 o         1 MOL     -0.541599
     97 C31         6.2050    5.0600    0.7220 c3        1 MOL      0.069843
     98 C32         6.2870    5.8710    2.0060 c3        1 MOL     -0.020816
     99 C33         5.9980    5.9800   -0.5100 c3        1 MOL     -0.212136
    100 C34         6.6350    4.9840    3.2470 c3        1 MOL     -0.227481
    101 H42         5.3650    3.6990   -1.4520 hn        1 MOL      0.247767
    102 H43         5.7830    3.2620    1.5340 h1        1 MOL      0.060598
    103 H44         7.2020    4.6260    0.5870 hc        1 MOL      0.046516
    104 H45         5.3920    6.4430    2.2300 hc        1 MOL      0.028187
    105 H46         7.0760    6.6110    1.8430 hc        1 MOL      0.028187
    106 H47         6.6000    6.8880   -0.5190 hc        1 MOL      0.039575
    107 H48         6.2180    5.3950   -1.4030 hc        1 MOL      0.039575
    108 H49         4.9420    6.2620   -0.5310 hc        1 MOL      0.039575
    109 H50         6.8470    5.5990    4.1210 hc        1 MOL      0.063624
    110 H51         5.7780    4.3960    3.5740 hc        1 MOL      0.063624
    111 H52         7.4650    4.2820    3.0890 hc        1 MOL      0.063624
    112 N10         3.0860    4.5840    0.1670 n         1 MOL     -0.511794
    113 C35         1.6290    4.8750    0.4500 c3        1 MOL      0.051410
    114 C36         0.6490    3.6400    0.3510 c         1 MOL      0.597709
    115 O17         0.8750    2.8170   -0.5370 o         1 MOL     -0.580457
    116 C37         1.0640    6.1400   -0.2230 c3        1 MOL      0.337348
    117 C38         1.8900    7.4190   -0.0620 c3        1 MOL     -0.327793
    118 O18        -0.1960    6.5590    0.3230 oh        1 MOL     -0.670112
    119 H53         3.4740    4.6850   -0.7530 hn        1 MOL      0.304823
    120 H54         1.5350    5.0480    1.5190 h1        1 MOL      0.113200
    121 H55         0.9760    5.9480   -1.2920 h1        1 MOL      0.000282
    122 H56        -0.5380    7.3190   -0.1520 ho        1 MOL      0.424280
    123 H57         1.8620    7.8060    0.9510 hc        1 MOL      0.076757
    124 H58         2.8470    7.0640   -0.4230 hc        1 MOL      0.076757
    125 H59         1.6550    8.1070   -0.8770 hc        1 MOL      0.076757
    126 N11        -0.3600    3.5370    1.2050 n         1 MOL     -0.638675
    127 C39        -1.4000    2.4010    1.1370 c3        1 MOL      0.440576
    128 C40        -2.7490    2.9600    0.7080 c         1 MOL      0.419362
    129 O19        -2.9230    4.1490    0.5140 o         1 MOL     -0.537391
    130 C41        -1.4990    1.7850    2.5350 c3        1 MOL      0.244812
    131 C42        -1.8870    2.6380    3.6640 c3        1 MOL     -0.555381
    132 O20        -0.3100    1.2980    2.9940 oh        1 MOL     -0.494447
    133 H60        -0.6130    4.3690    1.7320 hn        1 MOL      0.338240
    134 H61        -1.1750    1.5060    0.5500 h1        1 MOL     -0.096157
    135 H62        -2.1690    0.9280    2.5430 h1        1 MOL      0.051990
    136 H63         0.1810    0.9810    2.2440 ho        1 MOL      0.192171
    137 H64        -2.8270    3.1710    3.4840 hc        1 MOL      0.143280
    138 H65        -2.0180    2.0200    4.5510 hc        1 MOL      0.143280
    139 H66        -1.1320    3.4040    3.8580 hc        1 MOL      0.143280
    140 N12        -3.7030    2.0220    0.4310 n         1 MOL     -0.429085
    141 C43        -5.0030    2.2990   -0.1980 c3        1 MOL      0.051542
    142 C44        -5.4830    1.1990   -1.1470 c         1 MOL      0.433615
    143 O21        -6.4270    1.4580   -1.9440 o         1 MOL     -0.663188
    144 C45        -6.0480    2.6720    0.9040 c3        1 MOL     -0.267549
    145 C46        -7.2580    3.5030    0.3910 c3        1 MOL      0.537908
    146 C47        -7.0420    4.6390   -0.5780 c3        1 MOL     -0.214166
    147 C48        -6.7400    5.9390    0.1300 c3        1 MOL      0.112576
    148 N13        -6.5950    7.0980   -0.8610 n4        1 MOL     -0.139447
    149 H67        -3.4280    1.0550    0.5400 hn        1 MOL      0.184696
    150 H68        -4.8440    3.1360   -0.8700 h1        1 MOL      0.127072
    151 H69        -5.5950    3.3860    1.5910 hc        1 MOL      0.055264
    152 H70        -6.3860    1.8160    1.4890 hc        1 MOL      0.055264
    153 H71        -7.6010    3.9750    1.3150 hc        1 MOL     -0.083026
    154 H72        -8.1650    2.9230    0.2140 hc        1 MOL     -0.083026
    155 H73        -8.0300    4.7720   -1.0040 hc        1 MOL      0.033282
    156 H74        -6.2850    4.3330   -1.3010 hc        1 MOL      0.033282
    157 H75        -5.8580    5.8960    0.7670 hx        1 MOL      0.034275
    158 H76        -7.6690    6.1390    0.6630 hx        1 MOL      0.034275
    159 H77        -5.6620    7.2360   -1.2110 hn        1 MOL      0.230367
    160 H78        -7.3470    7.1460   -1.5330 hn        1 MOL      0.230367
    161 H79        -6.8090    7.9230   -0.3220 hn        1 MOL      0.230367
    162 N14        -4.9960   -0.0070   -1.1500 n         1 MOL     -0.175070
    163 C49        -5.5030   -1.2050   -1.9330 c3        1 MOL     -0.000122
    164 C50        -6.8800   -1.6200   -1.4520 c         1 MOL      0.558474
    165 O22        -7.0970   -1.9320   -0.2790 o         1 MOL     -0.513776
    166 C51        -4.4990   -2.3760   -1.9620 c3        1 MOL     -0.432040
    167 C52        -4.8930   -3.3340   -3.1090 c3        1 MOL     -0.221093
    168 C53        -4.7800   -2.8570   -4.6270 c         1 MOL      0.486343
    169 O23        -3.7690   -2.1810   -4.9090 o         1 MOL     -0.651228
    170 O24        -5.6450   -3.1610   -5.4670 o         1 MOL     -0.651228
    171 H80        -4.2010   -0.1900   -0.5550 hn        1 MOL      0.198760
    172 H81        -5.6730   -0.8130   -2.9390 h1        1 MOL      0.112738
    173 H82        -4.3400   -2.9390   -1.0410 hc        1 MOL      0.205468
    174 H83        -3.5150   -2.0400   -2.2850 hc        1 MOL      0.205468
    175 H84        -5.9140   -3.6780   -2.9540 hc        1 MOL      0.112950
    176 H85        -4.2650   -4.2250   -3.0910 hc        1 MOL      0.112950
    177 N15        -7.8740   -1.5350   -2.3570 n         1 MOL     -0.332691
    178 C54        -9.2160   -2.0020   -1.9970 c3        1 MOL     -0.127264
    179 H86        -9.2850   -3.0760   -2.1680 h1        1 MOL      0.079616
    180 H87        -9.4060   -1.7890   -0.9450 h1        1 MOL      0.079616
    181 H88        -9.9560   -1.4890   -2.6120 h1        1 MOL      0.079616
    182 H89        -7.6280   -1.2590   -3.2910 hn        1 MOL      0.308975
    183 Ca1        -1.2970   -1.6570   -5.3510 Ca        1 MOL      1.711025
    184 O25         0.8170    0.1090   -5.2850 oh        1 MOL     -0.839677
    185 H90         0.9990    1.0520   -5.2300 ho        1 MOL      0.431638
    186 H91         1.6720   -0.3070   -5.2300 ho        1 MOL      0.431638
    187 O26         1.0960   -2.8060   -6.0260 oh        1 MOL     -0.839677
    188 H92         1.9120   -2.3220   -6.1390 ho        1 MOL      0.431638
    189 H93         1.3190   -3.5190   -5.4230 ho        1 MOL      0.431638
    190 O27        -2.1720    0.6890   -6.2040 oh        1 MOL     -0.839677
    191 H94        -1.8500    1.5830   -6.1200 ho        1 MOL      0.431638
    192 H95        -3.0760    0.7270   -5.9030 ho        1 MOL      0.431638
@<TRIPOS>BOND
     1    1    2 1   
     2    1    4 1   
     3    1    5 1   
     4    1    6 1   
     5    2    3 2   
     6    2    7 1   
     7    7    8 1   
     8    7   15 1   
     9    8    9 1   
    10    8   11 1   
    11    8   16 1   
    12    9   10 2   
    13    9   19 1   
    14   11   12 1   
    15   11   17 1   
    16   11   18 1   
    17   12   13 1   
    18   12   14 1   
    19   19   20 1   
    20   19   28 1   
    21   20   21 1   
    22   20   23 1   
    23   20   29 1   
    24   21   22 2   
    25   21   41 1   
    26   23   24 1   
    27   23   30 1   
    28   23   31 1   
    29   24   25 1   
    30   24   32 1   
    31   24   33 1   
    32   25   26 1   
    33   25   34 1   
    34   25   35 1   
    35   26   27 1   
    36   26   36 1   
    37   26   37 1   
    38   27   38 1   
    39   27   39 1   
    40   27   40 1   
    41   41   42 1   
    42   41   49 1   
    43   42   43 1   
    44   42   45 1   
    45   42   50 1   
    46   43   44 2   
    47   43   53 1   
    48   45   46 1   
    49   45   51 1   
    50   45   52 1   
    51   46   47 1   
    52   46   48 1   
    53   53   54 1   
    54   53   57 1   
    55   54   55 1   
    56   54   58 1   
    57   54   59 1   
    58   55   56 2   
    59   55   60 1   
    60   60   61 1   
    61   60   68 1   
    62   61   62 1   
    63   61   64 1   
    64   61   69 1   
    65   62   63 2   
    66   62   72 1   
    67   64   65 1   
    68   64   70 1   
    69   64   71 1   
    70   65   66 1   
    71   65   67 1   
    72   72   73 1   
    73   72   76 1   
    74   73   74 1   
    75   73   77 1   
    76   73   78 1   
    77   74   75 2   
    78   74   79 1   
    79   79   80 1   
    80   79   86 1   
    81   80   81 1   
    82   80   83 1   
    83   80   87 1   
    84   81   82 2   
    85   81   93 1   
    86   83   84 1   
    87   83   85 1   
    88   83   88 1   
    89   84   90 1   
    90   84   91 1   
    91   84   92 1   
    92   85   89 1   
    93   93   94 1   
    94   93  101 1   
    95   94   95 1   
    96   94   97 1   
    97   94  102 1   
    98   95   96 2   
    99   95  112 1   
   100   97   98 1   
   101   97   99 1   
   102   97  103 1   
   103   98  100 1   
   104   98  104 1   
   105   98  105 1   
   106   99  106 1   
   107   99  107 1   
   108   99  108 1   
   109  100  109 1   
   110  100  110 1   
   111  100  111 1   
   112  112  113 1   
   113  112  119 1   
   114  113  114 1   
   115  113  116 1   
   116  113  120 1   
   117  114  115 2   
   118  114  126 1   
   119  116  117 1   
   120  116  118 1   
   121  116  121 1   
   122  117  123 1   
   123  117  124 1   
   124  117  125 1   
   125  118  122 1   
   126  126  127 1   
   127  126  133 1   
   128  127  128 1   
   129  127  130 1   
   130  127  134 1   
   131  128  129 2   
   132  128  140 1   
   133  130  131 1   
   134  130  132 1   
   135  130  135 1   
   136  131  137 1   
   137  131  138 1   
   138  131  139 1   
   139  132  136 1   
   140  140  141 1   
   141  140  149 1   
   142  141  142 1   
   143  141  144 1   
   144  141  150 1   
   145  142  143 2   
   146  142  162 1   
   147  144  145 1   
   148  144  151 1   
   149  144  152 1   
   150  145  146 1   
   151  145  153 1   
   152  145  154 1   
   153  146  147 1   
   154  146  155 1   
   155  146  156 1   
   156  147  148 1   
   157  147  157 1   
   158  147  158 1   
   159  148  159 1   
   160  148  160 1   
   161  148  161 1   
   162  162  163 1   
   163  162  171 1   
   164  163  164 1   
   165  163  166 1   
   166  163  172 1   
   167  164  165 2   
   168  164  177 1   
   169  166  167 1   
   170  166  173 1   
   171  166  174 1   
   172  167  168 1   
   173  167  175 1   
   174  167  176 1   
   175  168  169 1   
   176  168  170 1   
   177  177  178 1   
   178  177  182 1   
   179  178  179 1   
   180  178  180 1   
   181  178  181 1   
   182  184  185 1   
   183  184  186 1   
   184  187  188 1   
   185  187  189 1   
   186  190  191 1   
   187  190  192 1   
@<TRIPOS>SUBSTRUCTURE
     1 MOL         1 TEMP              0 ****  ****    0 ROOT
