@<TRIPOS>MOLECULE
MOL
  181   177     1     0     0
SMALL
resp


@<TRIPOS>ATOM
      1 C1         -2.9360    1.3730    4.2780 c3        1 MOL     -0.409404
      2 C2         -4.0620    0.2920    4.0170 c         1 MOL      0.619865
      3 O1         -3.9160   -0.8820    4.1810 o         1 MOL     -0.557541
      4 H1         -2.6440    1.3470    5.3270 hc        1 MOL      0.099144
      5 H2         -2.0700    1.1540    3.6540 hc        1 MOL      0.099144
      6 H3         -3.3190    2.3640    4.0330 hc        1 MOL      0.099144
      7 N1         -5.2030    0.7880    3.5640 n         1 MOL     -0.325563
      8 C3         -6.4270    0.0180    3.2770 c3        1 MOL     -0.076879
      9 C4         -7.1080    0.2970    2.0110 c         1 MOL      0.793838
     10 O2         -7.2340    1.4580    1.5780 o         1 MOL     -0.627940
     11 C5         -7.3910    0.3680    4.4680 c3        1 MOL     -0.177195
     12 C6         -8.8320   -0.1290    4.2930 c         1 MOL      0.692257
     13 O3         -9.8440    0.6060    4.4980 o         1 MOL     -0.723844
     14 O4         -8.9290   -1.3900    4.0690 o         1 MOL     -0.723844
     15 H4         -5.2540    1.7920    3.4800 hn        1 MOL      0.210369
     16 H5         -6.2080   -1.0460    3.3510 h1        1 MOL      0.091061
     17 H6         -7.3860    1.4370    4.7020 hc        1 MOL      0.017034
     18 H7         -6.9260   -0.0120    5.3720 hc        1 MOL      0.017034
     19 N2         -7.3510   -0.8150    1.3050 n         1 MOL     -0.703870
     20 C7         -7.4600   -0.8120   -0.1300 c3        1 MOL      0.534946
     21 C8         -6.0900   -0.6290   -0.8460 c         1 MOL      0.378253
     22 O5         -5.0600   -0.8920   -0.2130 o         1 MOL     -0.517033
     23 C9         -8.0950   -2.1250   -0.5710 c3        1 MOL     -0.298326
     24 H8         -7.2240   -1.7290    1.7310 hn        1 MOL      0.327050
     25 H9         -8.1390   -0.0260   -0.4660 h1        1 MOL     -0.031923
     26 H10        -7.5460   -2.9990   -0.2190 hc        1 MOL      0.069593
     27 H11        -9.1160   -2.0880   -0.1850 hc        1 MOL      0.069593
     28 H12        -8.2090   -2.2140   -1.6590 hc        1 MOL      0.069593
     29 N3         -5.9810   -0.2250   -2.1290 n         1 MOL     -0.470451
     30 C10        -4.8530   -0.4210   -3.1010 c3        1 MOL     -0.068817
     31 C11        -4.9970   -1.7240   -3.8880 c         1 MOL      0.707547
     32 O6         -5.9020   -1.8860   -4.6820 o         1 MOL     -0.562285
     33 C12        -4.7800    0.7880   -4.0590 c3        1 MOL     -0.187417
     34 C13        -4.4320    2.0670   -3.2320 c         1 MOL      0.764528
     35 O7         -5.2330    3.0200   -3.3260 o         1 MOL     -0.729974
     36 O8         -3.3820    2.1200   -2.5110 o         1 MOL     -0.729974
     37 H13        -6.8020    0.0630   -2.6460 hn        1 MOL      0.276711
     38 H14        -3.8770   -0.4800   -2.6160 h1        1 MOL      0.032777
     39 H15        -5.6650    0.8800   -4.6850 hc        1 MOL      0.057392
     40 H16        -3.9640    0.5960   -4.7620 hc        1 MOL      0.057392
     41 N4         -3.9170   -2.5510   -3.8210 n         1 MOL     -0.405593
     42 C14        -3.9350   -3.8570   -4.3620 c3        1 MOL     -0.200028
     43 C15        -2.7760   -4.7520   -3.8270 c         1 MOL      0.749702
     44 O9         -2.5850   -5.7530   -4.4240 o         1 MOL     -0.584634
     45 H17        -3.0460   -2.2570   -3.4170 hn        1 MOL      0.295464
     46 H18        -3.9810   -3.9250   -5.4460 h1        1 MOL      0.099725
     47 H19        -4.8230   -4.3890   -4.0120 h1        1 MOL      0.099725
     48 N5         -2.0450   -4.3650   -2.7750 n         1 MOL     -0.694065
     49 C16        -0.8070   -4.9620   -2.2990 c3        1 MOL      0.341543
     50 C17        -0.7540   -5.1190   -0.7750 c         1 MOL      0.521775
     51 O10        -1.3800   -4.4310    0.0060 o         1 MOL     -0.468331
     52 C18         0.3330   -4.1020   -2.8960 c3        1 MOL     -0.353722
     53 C19         0.5010   -4.4550   -4.3570 c         1 MOL      0.726657
     54 N6          1.0180   -5.6490   -4.6070 n         1 MOL     -0.730989
     55 O11         0.3480   -3.6460   -5.2970 o         1 MOL     -0.561153
     56 H20        -2.3250   -3.5350   -2.2600 hn        1 MOL      0.311265
     57 H21        -0.6750   -5.9700   -2.6740 h1        1 MOL     -0.024356
     58 H22         1.2700   -4.2640   -2.3560 hc        1 MOL      0.111246
     59 H23         0.0900   -3.0340   -2.8380 hc        1 MOL      0.111246
     60 H24         1.4230   -6.1620   -3.8330 hn        1 MOL      0.332281
     61 H25         1.2900   -5.8860   -5.5470 hn        1 MOL      0.332281
     62 N7          0.0400   -6.0370   -0.2640 n         1 MOL     -0.548424
     63 C20         0.7450   -6.0660    1.0240 c3        1 MOL      0.110536
     64 C21         2.0520   -5.3680    1.0520 c         1 MOL      0.361177
     65 O12         2.1980   -4.4450    0.2290 o         1 MOL     -0.386129
     66 H26         0.2930   -6.7010   -0.9940 hn        1 MOL      0.260046
     67 H27         0.8220   -7.1000    1.3320 h1        1 MOL      0.073400
     68 H28         0.1130   -5.6320    1.8050 h1        1 MOL      0.073400
     69 N8          3.0280   -5.7470    1.8820 n         1 MOL     -0.283087
     70 C22         4.4390   -5.3760    1.7480 c3        1 MOL     -0.278154
     71 C23         4.7200   -3.8910    2.2030 c         1 MOL      0.382887
     72 O13         5.7740   -3.3710    1.8780 o         1 MOL     -0.503874
     73 C24         5.4220   -6.1030    2.6680 c3        1 MOL      0.492892
     74 C25         5.1560   -6.0280    4.1810 c3        1 MOL     -0.430177
     75 O14         5.4320   -7.5030    2.4160 oh        1 MOL     -0.690883
     76 H29         2.7710   -6.5360    2.4600 hn        1 MOL      0.190390
     77 H30         4.7400   -5.5240    0.7120 h1        1 MOL      0.172159
     78 H31         6.4450   -5.7640    2.4890 h1        1 MOL      0.067920
     79 H32         4.6700   -7.9900    2.7490 ho        1 MOL      0.410919
     80 H33         4.9170   -5.0110    4.4860 hc        1 MOL      0.104411
     81 H34         4.3620   -6.5970    4.6750 hc        1 MOL      0.104411
     82 H35         6.0090   -6.4860    4.6820 hc        1 MOL      0.104411
     83 N9          3.8120   -3.2750    3.0080 n         1 MOL     -0.117430
     84 C26         3.7630   -1.8080    3.1890 c3        1 MOL      0.005337
     85 C27         2.7230   -1.1810    2.2540 c         1 MOL      0.425262
     86 O15         1.6240   -1.7010    2.1710 o         1 MOL     -0.476764
     87 C28         3.4390   -1.4660    4.6730 c3        1 MOL      0.325545
     88 C29         4.3850   -2.0670    5.6920 c3        1 MOL     -0.021606
     89 C30         3.5160    0.0390    4.8450 c3        1 MOL     -0.377382
     90 C31         5.9020   -2.0890    5.3470 c3        1 MOL     -0.164727
     91 H36         3.0980   -3.8050    3.4940 hn        1 MOL      0.151695
     92 H37         4.7550   -1.4140    2.9950 h1        1 MOL      0.044385
     93 H38         2.4460   -1.8400    4.9300 hc        1 MOL     -0.040902
     94 H39         4.1030   -3.1010    5.9140 hc        1 MOL     -0.006766
     95 H40         4.3380   -1.5050    6.6230 hc        1 MOL     -0.006766
     96 H41         3.3700    0.1960    5.9110 hc        1 MOL      0.088796
     97 H42         4.4770    0.3540    4.4600 hc        1 MOL      0.088796
     98 H43         2.7220    0.4360    4.2100 hc        1 MOL      0.088796
     99 H44         6.2760   -1.0710    5.2470 hc        1 MOL      0.032884
    100 H45         6.3520   -2.6030    6.2020 hc        1 MOL      0.032884
    101 H46         5.9860   -2.7490    4.4860 hc        1 MOL      0.032884
    102 N10         3.0100   -0.0170    1.5970 n         1 MOL     -0.412307
    103 C32         2.0500    0.6940    0.7730 c3        1 MOL      0.192476
    104 C33         2.7150    1.3790   -0.4610 c         1 MOL      0.310559
    105 O16         2.4170    2.5340   -0.6960 o         1 MOL     -0.324043
    106 C34         1.1430    1.5870    1.6560 c3        1 MOL     -0.140019
    107 C35        -0.1740    1.9930    0.8940 c         1 MOL      0.674844
    108 O17        -0.4980    1.5850   -0.2380 o         1 MOL     -0.716910
    109 O18        -0.8720    2.9000    1.3580 o         1 MOL     -0.716910
    110 H47         3.9040    0.4190    1.7040 hn        1 MOL      0.246624
    111 H48         1.4000   -0.0500    0.3220 h1        1 MOL      0.054521
    112 H49         1.6770    2.5130    1.8830 hc        1 MOL      0.042569
    113 H50         0.9860    1.0920    2.6090 hc        1 MOL      0.042569
    114 N11         3.7560    0.7310   -0.9770 n         1 MOL     -0.253147
    115 C36         4.6790    1.3270   -1.9850 c3        1 MOL      0.015715
    116 C37         5.2870    2.6860   -1.5690 c         1 MOL      0.268480
    117 O19         5.8040    2.7030   -0.4390 o         1 MOL     -0.484087
    118 C38         5.8130    0.2900   -2.1430 c3        1 MOL     -0.155328
    119 C39         5.3870   -1.1950   -2.3960 ca        1 MOL     -0.023088
    120 C40         5.5770   -2.2190   -1.4460 ca        1 MOL     -0.083223
    121 C41         4.7300   -1.5130   -3.5800 ca        1 MOL     -0.083223
    122 C42         5.2280   -3.5610   -1.7280 ca        1 MOL     -0.115148
    123 C43         4.2970   -2.8030   -3.8630 ca        1 MOL     -0.115148
    124 C44         4.6310   -3.8370   -2.9710 ca        1 MOL     -0.120615
    125 H51         3.9120   -0.1890   -0.5870 hn        1 MOL      0.216863
    126 H52         4.1270    1.3220   -2.9320 h1        1 MOL      0.081072
    127 H53         6.4840    0.2620   -1.2910 hc        1 MOL      0.087392
    128 H54         6.4990    0.5800   -2.9390 hc        1 MOL      0.087392
    129 H55         6.0680   -2.1020   -0.4980 ha        1 MOL      0.094504
    130 H56         4.5080   -0.7380   -4.2960 ha        1 MOL      0.094504
    131 H57         5.4240   -4.3340   -0.9930 ha        1 MOL      0.108715
    132 H58         3.6400   -3.0400   -4.6840 ha        1 MOL      0.108715
    133 H59         4.3180   -4.8670   -3.1260 ha        1 MOL      0.070205
    134 N12         5.2860    3.7110   -2.4260 n         1 MOL     -0.078336
    135 C45         5.7740    5.0180   -2.0560 c3        1 MOL     -0.005051
    136 C46         4.9230    5.7550   -0.9780 c         1 MOL      0.376165
    137 O20         5.3090    6.8440   -0.5970 o         1 MOL     -0.526391
    138 C47         5.6240    5.7810   -3.3820 c3        1 MOL      0.040395
    139 C48         4.4610    5.2370   -4.1660 c3        1 MOL     -0.038768
    140 C49         4.6190    3.7680   -3.7580 c3        1 MOL     -0.068826
    141 H60         6.8170    5.0920   -1.7800 h1        1 MOL      0.066146
    142 H61         5.6520    6.8520   -3.2030 hc        1 MOL      0.000518
    143 H62         6.4690    5.5010   -4.0170 hc        1 MOL      0.000518
    144 H63         3.5250    5.6140   -3.7540 hc        1 MOL      0.040440
    145 H64         4.5230    5.3800   -5.2410 hc        1 MOL      0.040440
    146 H65         3.6290    3.3270   -3.6820 h1        1 MOL      0.065095
    147 H66         5.1650    3.2020   -4.5130 h1        1 MOL      0.065095
    148 N13         3.7570    5.2070   -0.5640 n         1 MOL     -0.047697
    149 C50         2.9490    6.1410    0.2430 c3        1 MOL     -0.343063
    150 C51         3.3810    6.1690    1.8110 c         1 MOL      0.454948
    151 O21         2.9260    6.9980    2.5700 o         1 MOL     -0.511707
    152 C52         1.4880    5.7530    0.2200 c3        1 MOL      0.384909
    153 C53         0.8970    5.6990   -1.2410 c3        1 MOL     -0.257340
    154 C54        -0.5450    5.1090   -1.1700 c         1 MOL      0.760684
    155 O22        -1.2890    5.3230   -0.2350 o         1 MOL     -0.762482
    156 O23        -0.9430    4.3100   -2.0380 o         1 MOL     -0.762482
    157 H67         3.3320    4.3790   -0.9510 hn        1 MOL      0.142288
    158 H68         2.9570    7.1730   -0.0830 h1        1 MOL      0.154873
    159 H69         0.9070    6.5100    0.7430 hc        1 MOL     -0.046464
    160 H70         1.4170    4.7320    0.6030 hc        1 MOL     -0.046464
    161 H71         1.4720    5.0810   -1.9350 hc        1 MOL      0.022950
    162 H72         0.9030    6.7300   -1.5970 hc        1 MOL      0.022950
    163 N14         4.2620    5.2620    2.2720 n         1 MOL     -0.246566
    164 C55         4.4520    5.0290    3.7290 c3        1 MOL     -0.160525
    165 H73         4.4090    5.9810    4.2580 h1        1 MOL      0.079342
    166 H74         3.6640    4.3730    4.0990 h1        1 MOL      0.079342
    167 H75         5.4220    4.5620    3.8990 h1        1 MOL      0.079342
    168 H76         4.7100    4.5830    1.6620 hn        1 MOL      0.207140
    169 Ca1        -2.7670    3.1360   -0.3730 Ca        1 MOL      1.718228
    170 O24        -4.4060    5.2000   -0.7120 oh        1 MOL     -0.774851
    171 H77        -5.3310    5.3270   -0.4810 ho        1 MOL      0.385007
    172 H78        -4.2400    5.8320   -1.4160 ho        1 MOL      0.385007
    173 O25        -2.9560    0.5060    0.7390 oh        1 MOL     -0.774851
    174 H79        -3.7140    0.0950    0.3280 ho        1 MOL      0.385007
    175 H80        -2.2160   -0.0390    0.4790 ho        1 MOL      0.385007
    176 O26        -5.3390    2.5650   -0.1570 oh        1 MOL     -0.774851
    177 H81        -5.9970    2.8460   -0.8000 ho        1 MOL      0.385007
    178 H82        -5.8570    2.2800    0.5950 ho        1 MOL      0.385007
    179 O27        -3.7780    4.0070    2.0040 oh        1 MOL     -0.774851
    180 H83        -4.7360    4.0230    2.0130 ho        1 MOL      0.385007
    181 H84        -3.5200    4.4450    2.8140 ho        1 MOL      0.385007
@<TRIPOS>BOND
     1    1    2 1   
     2    1    4 1   
     3    1    5 1   
     4    1    6 1   
     5    2    3 2   
     6    2    7 1   
     7    7    8 1   
     8    7   15 1   
     9    8    9 1   
    10    8   11 1   
    11    8   16 1   
    12    9   10 2   
    13    9   19 1   
    14   11   12 1   
    15   11   17 1   
    16   11   18 1   
    17   12   13 1   
    18   12   14 1   
    19   19   20 1   
    20   19   24 1   
    21   20   21 1   
    22   20   23 1   
    23   20   25 1   
    24   21   22 2   
    25   21   29 1   
    26   23   26 1   
    27   23   27 1   
    28   23   28 1   
    29   29   30 1   
    30   29   37 1   
    31   30   31 1   
    32   30   33 1   
    33   30   38 1   
    34   31   32 2   
    35   31   41 1   
    36   33   34 1   
    37   33   39 1   
    38   33   40 1   
    39   34   35 1   
    40   34   36 1   
    41   41   42 1   
    42   41   45 1   
    43   42   43 1   
    44   42   46 1   
    45   42   47 1   
    46   43   44 2   
    47   43   48 1   
    48   48   49 1   
    49   48   56 1   
    50   49   50 1   
    51   49   52 1   
    52   49   57 1   
    53   50   51 2   
    54   50   62 1   
    55   52   53 1   
    56   52   58 1   
    57   52   59 1   
    58   53   54 1   
    59   53   55 2   
    60   54   60 1   
    61   54   61 1   
    62   62   63 1   
    63   62   66 1   
    64   63   64 1   
    65   63   67 1   
    66   63   68 1   
    67   64   65 2   
    68   64   69 1   
    69   69   70 1   
    70   69   76 1   
    71   70   71 1   
    72   70   73 1   
    73   70   77 1   
    74   71   72 2   
    75   71   83 1   
    76   73   74 1   
    77   73   75 1   
    78   73   78 1   
    79   74   80 1   
    80   74   81 1   
    81   74   82 1   
    82   75   79 1   
    83   83   84 1   
    84   83   91 1   
    85   84   85 1   
    86   84   87 1   
    87   84   92 1   
    88   85   86 2   
    89   85  102 1   
    90   87   88 1   
    91   87   89 1   
    92   87   93 1   
    93   88   90 1   
    94   88   94 1   
    95   88   95 1   
    96   89   96 1   
    97   89   97 1   
    98   89   98 1   
    99   90   99 1   
   100   90  100 1   
   101   90  101 1   
   102  102  103 1   
   103  102  110 1   
   104  103  104 1   
   105  103  106 1   
   106  103  111 1   
   107  104  105 2   
   108  104  114 1   
   109  106  107 1   
   110  106  112 1   
   111  106  113 1   
   112  107  108 1   
   113  107  109 1   
   114  114  115 1   
   115  114  125 1   
   116  115  116 1   
   117  115  118 1   
   118  115  126 1   
   119  116  117 2   
   120  116  134 1   
   121  118  119 1   
   122  118  127 1   
   123  118  128 1   
   124  119  120 ar  
   125  119  121 ar  
   126  120  122 ar  
   127  120  129 1   
   128  121  123 ar  
   129  121  130 1   
   130  122  124 ar  
   131  122  131 1   
   132  123  124 ar  
   133  123  132 1   
   134  124  133 1   
   135  134  135 1   
   136  134  140 1   
   137  135  136 1   
   138  135  138 1   
   139  135  141 1   
   140  136  137 2   
   141  136  148 1   
   142  138  139 1   
   143  138  142 1   
   144  138  143 1   
   145  139  140 1   
   146  139  144 1   
   147  139  145 1   
   148  140  146 1   
   149  140  147 1   
   150  148  149 1   
   151  148  157 1   
   152  149  150 1   
   153  149  152 1   
   154  149  158 1   
   155  150  151 2   
   156  150  163 1   
   157  152  153 1   
   158  152  159 1   
   159  152  160 1   
   160  153  154 1   
   161  153  161 1   
   162  153  162 1   
   163  154  155 1   
   164  154  156 1   
   165  163  164 1   
   166  163  168 1   
   167  164  165 1   
   168  164  166 1   
   169  164  167 1   
   170  170  171 1   
   171  170  172 1   
   172  173  174 1   
   173  173  175 1   
   174  176  177 1   
   175  176  178 1   
   176  179  180 1   
   177  179  181 1   
@<TRIPOS>SUBSTRUCTURE
     1 MOL         1 TEMP              0 ****  ****    0 ROOT
