@<TRIPOS>MOLECULE
MOL
  195   189     1     0     0
SMALL
resp


@<TRIPOS>ATOM
      1 C1          7.0390    1.7130    4.5180 c3        1 MOL     -0.243590
      2 C2          6.3710    1.4480    3.1580 c         1 MOL      0.698277
      3 O1          5.9570    2.3960    2.5210 o         1 MOL     -0.527702
      4 H1          8.1220    1.7040    4.3970 hc        1 MOL      0.065073
      5 H2          6.7230    2.6860    4.8940 hc        1 MOL      0.065073
      6 H3          6.7460    0.9370    5.2240 hc        1 MOL      0.065073
      7 N1          6.1760    0.1030    2.8420 n         1 MOL     -0.626226
      8 C3          5.5850   -0.4650    1.6250 c3        1 MOL      0.325369
      9 C4          4.0840   -0.3720    1.5270 c         1 MOL      0.106244
     10 O2          3.4200   -0.9490    0.6740 o         1 MOL     -0.190162
     11 C5          6.1610   -1.9090    1.4740 c3        1 MOL     -0.485690
     12 C6          5.7800   -2.9110    2.6340 c         1 MOL      0.924988
     13 O3          4.8930   -3.7570    2.4800 o         1 MOL     -0.731224
     14 O4          6.4640   -2.9260    3.6370 o         1 MOL     -0.731224
     15 H4          6.4190   -0.5870    3.5370 hn        1 MOL      0.272764
     16 H5          6.0070    0.0600    0.7680 h1        1 MOL      0.098128
     17 H6          7.2480   -1.9230    1.3800 hc        1 MOL      0.103604
     18 H7          5.7670   -2.2550    0.5190 hc        1 MOL      0.103604
     19 N2          3.4170    0.2140    2.5660 n         1 MOL     -0.278098
     20 C7          1.9440    0.1390    2.8460 c3        1 MOL      0.001747
     21 C8          1.2560    1.4900    2.6600 c         1 MOL      0.311501
     22 O5          1.5880    2.4010    3.4350 o         1 MOL     -0.496561
     23 C9          1.7080   -0.4490    4.2800 c3        1 MOL     -0.387721
     24 C10         2.1850   -1.8610    4.5520 c3        1 MOL      0.296914
     25 C11         3.6230   -2.0000    5.1060 c3        1 MOL     -0.157341
     26 C12         3.7980   -3.5190    5.3830 c3        1 MOL      0.141525
     27 N3          5.1910   -3.7160    5.9950 n4        1 MOL     -0.344311
     28 H8          4.0070    0.6120    3.2790 hn        1 MOL      0.274759
     29 H9          1.5770   -0.5240    2.0600 h1        1 MOL      0.160437
     30 H10         0.6300   -0.3230    4.4100 hc        1 MOL      0.134138
     31 H11         2.1770    0.1700    5.0350 hc        1 MOL      0.134138
     32 H12         2.0220   -2.5050    3.6950 hc        1 MOL     -0.030699
     33 H13         1.5270   -2.2020    5.3500 hc        1 MOL     -0.030699
     34 H14         3.5760   -1.5900    6.1190 hc        1 MOL      0.022721
     35 H15         4.3810   -1.6230    4.4350 hc        1 MOL      0.022721
     36 H16         3.5260   -4.1330    4.5240 hx        1 MOL      0.052766
     37 H17         3.1040   -3.8590    6.1580 hx        1 MOL      0.052766
     38 H18         5.3440   -3.1120    6.7940 hn        1 MOL      0.297622
     39 H19         5.3920   -4.6750    6.2260 hn        1 MOL      0.297622
     40 H20         5.9170   -3.5220    5.3290 hn        1 MOL      0.297622
     41 N4          0.2320    1.7490    1.7980 n         1 MOL     -0.004311
     42 C13        -0.4830    0.7330    1.0160 c3        1 MOL     -0.084772
     43 C14        -0.9850   -0.5370    1.7490 c         1 MOL      0.523902
     44 O6         -0.4580   -1.6130    1.6270 o         1 MOL     -0.514655
     45 C15         0.2210    0.5370   -0.3400 c3        1 MOL     -0.704624
     46 C16        -0.0130    1.6070   -1.4570 c         1 MOL      0.948933
     47 O7         -0.5970    2.6710   -1.1000 o         1 MOL     -0.767048
     48 O8          0.2650    1.3380   -2.6340 o         1 MOL     -0.767048
     49 H21         0.0470    2.7020    1.5290 hn        1 MOL      0.106673
     50 H22        -1.4280    1.1800    0.6980 h1        1 MOL      0.018246
     51 H23        -0.2270   -0.3310   -0.8170 hc        1 MOL      0.220978
     52 H24         1.2630    0.2270   -0.2080 hc        1 MOL      0.220978
     53 N5         -1.9530   -0.3850    2.6220 n         1 MOL     -0.386790
     54 C17        -2.8340    0.7720    2.6830 c3        1 MOL      0.057189
     55 C18        -3.8930    0.7680    3.8630 c         1 MOL      0.577065
     56 O9         -3.8830   -0.1600    4.6280 o         1 MOL     -0.517909
     57 H25        -2.0290   -1.1110    3.3240 hn        1 MOL      0.278107
     58 H26        -3.4580    0.8460    1.7890 h1        1 MOL      0.045094
     59 H27        -2.1740    1.6310    2.8130 h1        1 MOL      0.045094
     60 N6         -4.8180    1.7810    4.0280 n         1 MOL     -0.519852
     61 C19        -5.0790    2.9230    3.1390 c3        1 MOL      0.119936
     62 C20        -6.1600    2.6740    2.0560 c         1 MOL      0.507542
     63 O10        -7.1990    2.0310    2.3250 o         1 MOL     -0.478068
     64 C21        -5.4590    4.1910    3.8800 c3        1 MOL     -0.166593
     65 C22        -6.6860    4.1290    4.7570 c         1 MOL      0.681019
     66 O11        -6.7950    3.2430    5.6440 o         1 MOL     -0.626343
     67 O12        -7.6640    4.8990    4.5570 o         1 MOL     -0.626343
     68 H28        -5.5080    1.7400    4.7620 hn        1 MOL      0.311974
     69 H29        -4.1260    3.0580    2.6350 h1        1 MOL     -0.015741
     70 H30        -5.6000    5.0340    3.2010 hc        1 MOL      0.011199
     71 H31        -4.6110    4.4300    4.5090 hc        1 MOL      0.011199
     72 N7         -6.0480    3.1670    0.8170 n         1 MOL     -0.250626
     73 C23        -7.0070    3.0930   -0.3290 c3        1 MOL     -0.176440
     74 C24        -6.6510    1.9690   -1.3630 c         1 MOL      0.607008
     75 O13        -7.1430    1.9260   -2.4420 o         1 MOL     -0.553224
     76 H32        -5.1950    3.6570    0.5860 hn        1 MOL      0.137566
     77 H33        -7.0760    4.0170   -0.8950 h1        1 MOL      0.112089
     78 H34        -8.0070    2.9060    0.0700 h1        1 MOL      0.112089
     79 N8         -5.7530    1.0790   -0.8760 n         1 MOL     -0.467056
     80 C25        -5.1790   -0.1230   -1.5760 c3        1 MOL     -0.019991
     81 C26        -5.3540   -1.3540   -0.7160 c         1 MOL      0.627069
     82 O14        -4.8970   -1.4250    0.4110 o         1 MOL     -0.543365
     83 C27        -3.6620    0.0740   -1.9490 c3        1 MOL      0.362698
     84 C28        -3.5030    1.1820   -2.9670 c3        1 MOL     -0.400411
     85 O15        -3.1700   -1.1820   -2.4460 oh        1 MOL     -0.574243
     86 H35        -5.5530    1.2020    0.1070 hn        1 MOL      0.181242
     87 H36        -5.7720   -0.1830   -2.4880 h1        1 MOL      0.101974
     88 H37        -3.1790    0.2260   -0.9840 h1        1 MOL      0.035539
     89 H38        -2.3460   -1.3550   -1.9950 ho        1 MOL      0.354758
     90 H39        -3.9130    0.8500   -3.9210 hc        1 MOL      0.097520
     91 H40        -4.0830    2.0960   -2.8110 hc        1 MOL      0.097520
     92 H41        -2.4610    1.4550   -3.1650 hc        1 MOL      0.097520
     93 N9         -5.8570   -2.4600   -1.2630 n         1 MOL     -0.423453
     94 C29        -5.9420   -3.7640   -0.6180 c3        1 MOL     -0.069245
     95 C30        -4.6470   -4.5270   -0.6680 c         1 MOL      0.404345
     96 O16        -4.6710   -5.7390   -0.3350 o         1 MOL     -0.544394
     97 C31        -7.1900   -4.4880   -1.0810 c3        1 MOL      0.065454
     98 C32        -7.1430   -5.0070   -2.4940 c3        1 MOL      0.302714
     99 C33        -8.4600   -3.6960   -0.5900 c3        1 MOL     -0.324373
    100 C34        -8.3680   -5.8480   -2.8140 c3        1 MOL     -0.171257
    101 H42        -6.1890   -2.3830   -2.2080 hn        1 MOL      0.244712
    102 H43        -6.1710   -3.6050    0.4380 h1        1 MOL      0.148637
    103 H44        -7.2080   -5.3690   -0.4440 hc        1 MOL      0.029780
    104 H45        -6.2400   -5.5730   -2.6970 hc        1 MOL     -0.072739
    105 H46        -7.0450   -4.1480   -3.1560 hc        1 MOL     -0.072739
    106 H47        -8.3530   -3.5160    0.4820 hc        1 MOL      0.087347
    107 H48        -8.5300   -2.6450   -0.8940 hc        1 MOL      0.087347
    108 H49        -9.3960   -4.2060   -0.8170 hc        1 MOL      0.087347
    109 H50        -9.2330   -5.2080   -3.0070 hc        1 MOL      0.030733
    110 H51        -8.1750   -6.3200   -3.7790 hc        1 MOL      0.030733
    111 H52        -8.5260   -6.5820   -2.0220 hc        1 MOL      0.030733
    112 N10        -3.4970   -3.9730   -1.1050 n         1 MOL     -0.107618
    113 C35        -2.2110   -4.5970   -1.0520 c3        1 MOL     -0.053524
    114 C36        -1.1040   -3.5700   -0.9610 c         1 MOL      0.444613
    115 O17        -1.3210   -2.4320   -1.2230 o         1 MOL     -0.334185
    116 C37        -1.9480   -5.5020   -2.2710 c3        1 MOL      0.415747
    117 C38        -1.9320   -4.9520   -3.7110 c3        1 MOL     -0.058882
    118 O18        -2.8460   -6.6170   -2.2000 oh        1 MOL     -0.692171
    119 H53        -3.5520   -3.0550   -1.5160 hn        1 MOL      0.085736
    120 H54        -2.1910   -5.2800   -0.1940 h1        1 MOL      0.066716
    121 H55        -0.9350   -5.8830   -2.1070 h1        1 MOL     -0.044157
    122 H56        -3.4880   -6.5380   -1.4850 ho        1 MOL      0.399896
    123 H57        -1.0530   -4.3230   -3.8410 hc        1 MOL      0.010061
    124 H58        -1.8730   -5.7310   -4.4700 hc        1 MOL      0.010061
    125 H59        -2.8700   -4.4040   -3.8260 hc        1 MOL      0.010061
    126 N11         0.1080   -4.0200   -0.4990 n         1 MOL     -0.490209
    127 C39         1.2890   -3.1470   -0.4980 c3        1 MOL      0.089523
    128 C40         1.6520   -2.6550   -1.8970 c         1 MOL      0.226209
    129 O19         1.2750   -3.1840   -2.8990 o         1 MOL     -0.460163
    130 C41         2.6030   -3.9530   -0.0430 c3        1 MOL      0.603124
    131 C42         2.9840   -5.1540   -0.9090 c3        1 MOL     -0.406864
    132 O20         2.5400   -4.3300    1.2900 oh        1 MOL     -0.689609
    133 H60         0.2240   -4.9920   -0.2390 hn        1 MOL      0.325606
    134 H61         1.2590   -2.2660    0.1390 h1        1 MOL      0.008695
    135 H62         3.4270   -3.2390   -0.1510 h1        1 MOL     -0.095523
    136 H63         3.3580   -3.9830    1.6540 ho        1 MOL      0.436093
    137 H64         2.0790   -5.6100   -1.3370 hc        1 MOL      0.083742
    138 H65         3.7160   -4.8090   -1.6250 hc        1 MOL      0.083742
    139 H66         3.4450   -5.8620   -0.2350 hc        1 MOL      0.083742
    140 N12         2.5200   -1.6180   -1.9490 n         1 MOL      0.065350
    141 C43         3.2660   -1.1200   -3.1270 c3        1 MOL     -0.143897
    142 C44         3.5510    0.3530   -3.1180 c         1 MOL      0.725481
    143 O21         3.7540    0.9310   -4.1830 o         1 MOL     -0.633135
    144 C45         4.5230   -1.9910   -3.2930 c3        1 MOL     -0.241711
    145 C46         5.5630   -1.9200   -2.1350 c3        1 MOL     -0.111216
    146 C47         6.8620   -1.1640   -2.5770 c3        1 MOL      0.064532
    147 C48         7.7100   -1.9100   -3.6380 c3        1 MOL      0.074286
    148 N13         8.5380   -3.0260   -3.0810 n4        1 MOL     -0.367873
    149 H67         2.7330   -1.1460   -1.0750 hn        1 MOL     -0.160719
    150 H68         2.7990   -1.3650   -4.0830 h1        1 MOL      0.108733
    151 H69         5.0090   -1.7700   -4.2400 hc        1 MOL      0.100228
    152 H70         4.2670   -3.0420   -3.4580 hc        1 MOL      0.100228
    153 H71         5.8960   -2.9130   -1.8060 hc        1 MOL      0.010013
    154 H72         5.0680   -1.4020   -1.3120 hc        1 MOL      0.010013
    155 H73         7.5350   -0.9980   -1.7370 hc        1 MOL      0.014073
    156 H74         6.5200   -0.1650   -2.8610 hc        1 MOL      0.014073
    157 H75         8.3690   -1.1010   -3.9550 hx        1 MOL      0.057234
    158 H76         7.1030   -2.2330   -4.4870 hx        1 MOL      0.057234
    159 H77         9.1470   -3.4300   -3.7710 hn        1 MOL      0.320866
    160 H78         9.1620   -2.7360   -2.3360 hn        1 MOL      0.320866
    161 H79         7.8770   -3.7080   -2.7430 hn        1 MOL      0.320866
    162 N14         3.4410    0.9580   -1.9330 n         1 MOL      0.092157
    163 C49         3.7170    2.3760   -1.7410 c3        1 MOL     -0.698512
    164 C50         5.1720    2.8490   -2.0660 c         1 MOL      0.626174
    165 O22         6.1250    2.2470   -1.5450 o         1 MOL     -0.568882
    166 C51         3.5100    2.7980   -0.2580 c3        1 MOL      0.708184
    167 C52         3.4830    4.3170    0.0750 c3        1 MOL     -0.560830
    168 C53         2.8260    5.1830   -0.9850 c         1 MOL      0.753970
    169 O23         3.4460    5.8850   -1.7740 o         1 MOL     -0.712497
    170 O24         1.6040    5.1890   -1.0140 o         1 MOL     -0.712497
    171 H80         3.1970    0.5490   -1.0450 hn        1 MOL      0.169432
    172 H81         3.1280    2.9260   -2.4750 h1        1 MOL      0.158586
    173 H82         4.3580    2.3880    0.3030 hc        1 MOL     -0.139603
    174 H83         2.5110    2.4510    0.0180 hc        1 MOL     -0.139603
    175 H84         4.4320    4.7910    0.3300 hc        1 MOL      0.142002
    176 H85         2.9680    4.3360    1.0310 hc        1 MOL      0.142002
    177 N15         5.2770    3.9100   -2.9030 n         1 MOL     -0.412230
    178 C54         6.6270    4.5110   -3.1770 c3        1 MOL     -0.047645
    179 H86         7.3720    4.0410   -2.5340 h1        1 MOL      0.064509
    180 H87         6.8940    4.3470   -4.2210 h1        1 MOL      0.064509
    181 H88         6.5980    5.5820   -2.9730 h1        1 MOL      0.064509
    182 H89         4.3920    4.3660   -3.0760 hn        1 MOL      0.372600
    183 Ca1        -0.7850    5.3310   -1.5690 Ca        1 MOL      1.693507
    184 O25        -2.1110    7.3010   -3.1090 oh        1 MOL     -0.866114
    185 H90        -2.5990    7.8460   -2.4950 ho        1 MOL      0.420841
    186 H91        -2.4230    7.5940   -3.9720 ho        1 MOL      0.420841
    187 O26         0.7650    7.0180   -3.0850 oh        1 MOL     -0.866114
    188 H92         1.6310    7.2490   -3.4020 ho        1 MOL      0.420841
    189 H93         0.1600    7.4930   -3.6570 ho        1 MOL      0.420841
    190 O27        -2.4250    4.3490   -3.3160 oh        1 MOL     -0.866114
    191 H94        -3.2370    4.7500   -3.6250 ho        1 MOL      0.420841
    192 H95        -2.2020    3.6910   -3.9810 ho        1 MOL      0.420841
    193 O28         0.2600    3.7310   -3.8070 oh        1 MOL     -0.866114
    194 H96         0.4140    2.8350   -3.5110 ho        1 MOL      0.420841
    195 H97        -0.0620    3.6290   -4.7050 ho        1 MOL      0.420841
@<TRIPOS>BOND
     1    1    2 1   
     2    1    4 1   
     3    1    5 1   
     4    1    6 1   
     5    2    3 2   
     6    2    7 1   
     7    7    8 1   
     8    7   15 1   
     9    8    9 1   
    10    8   11 1   
    11    8   16 1   
    12    9   10 2   
    13    9   19 1   
    14   11   12 1   
    15   11   17 1   
    16   11   18 1   
    17   12   13 1   
    18   12   14 1   
    19   19   20 1   
    20   19   28 1   
    21   20   21 1   
    22   20   23 1   
    23   20   29 1   
    24   21   22 2   
    25   21   41 1   
    26   23   24 1   
    27   23   30 1   
    28   23   31 1   
    29   24   25 1   
    30   24   32 1   
    31   24   33 1   
    32   25   26 1   
    33   25   34 1   
    34   25   35 1   
    35   26   27 1   
    36   26   36 1   
    37   26   37 1   
    38   27   38 1   
    39   27   39 1   
    40   27   40 1   
    41   41   42 1   
    42   41   49 1   
    43   42   43 1   
    44   42   45 1   
    45   42   50 1   
    46   43   44 2   
    47   43   53 1   
    48   45   46 1   
    49   45   51 1   
    50   45   52 1   
    51   46   47 1   
    52   46   48 1   
    53   53   54 1   
    54   53   57 1   
    55   54   55 1   
    56   54   58 1   
    57   54   59 1   
    58   55   56 2   
    59   55   60 1   
    60   60   61 1   
    61   60   68 1   
    62   61   62 1   
    63   61   64 1   
    64   61   69 1   
    65   62   63 2   
    66   62   72 1   
    67   64   65 1   
    68   64   70 1   
    69   64   71 1   
    70   65   66 1   
    71   65   67 1   
    72   72   73 1   
    73   72   76 1   
    74   73   74 1   
    75   73   77 1   
    76   73   78 1   
    77   74   75 2   
    78   74   79 1   
    79   79   80 1   
    80   79   86 1   
    81   80   81 1   
    82   80   83 1   
    83   80   87 1   
    84   81   82 2   
    85   81   93 1   
    86   83   84 1   
    87   83   85 1   
    88   83   88 1   
    89   84   90 1   
    90   84   91 1   
    91   84   92 1   
    92   85   89 1   
    93   93   94 1   
    94   93  101 1   
    95   94   95 1   
    96   94   97 1   
    97   94  102 1   
    98   95   96 2   
    99   95  112 1   
   100   97   98 1   
   101   97   99 1   
   102   97  103 1   
   103   98  100 1   
   104   98  104 1   
   105   98  105 1   
   106   99  106 1   
   107   99  107 1   
   108   99  108 1   
   109  100  109 1   
   110  100  110 1   
   111  100  111 1   
   112  112  113 1   
   113  112  119 1   
   114  113  114 1   
   115  113  116 1   
   116  113  120 1   
   117  114  115 2   
   118  114  126 1   
   119  116  117 1   
   120  116  118 1   
   121  116  121 1   
   122  117  123 1   
   123  117  124 1   
   124  117  125 1   
   125  118  122 1   
   126  126  127 1   
   127  126  133 1   
   128  127  128 1   
   129  127  130 1   
   130  127  134 1   
   131  128  129 2   
   132  128  140 1   
   133  130  131 1   
   134  130  132 1   
   135  130  135 1   
   136  131  137 1   
   137  131  138 1   
   138  131  139 1   
   139  132  136 1   
   140  140  141 1   
   141  140  149 1   
   142  141  142 1   
   143  141  144 1   
   144  141  150 1   
   145  142  143 2   
   146  142  162 1   
   147  144  145 1   
   148  144  151 1   
   149  144  152 1   
   150  145  146 1   
   151  145  153 1   
   152  145  154 1   
   153  146  147 1   
   154  146  155 1   
   155  146  156 1   
   156  147  148 1   
   157  147  157 1   
   158  147  158 1   
   159  148  159 1   
   160  148  160 1   
   161  148  161 1   
   162  162  163 1   
   163  162  171 1   
   164  163  164 1   
   165  163  166 1   
   166  163  172 1   
   167  164  165 2   
   168  164  177 1   
   169  166  167 1   
   170  166  173 1   
   171  166  174 1   
   172  167  168 1   
   173  167  175 1   
   174  167  176 1   
   175  168  169 1   
   176  168  170 1   
   177  177  178 1   
   178  177  182 1   
   179  178  179 1   
   180  178  180 1   
   181  178  181 1   
   182  184  185 1   
   183  184  186 1   
   184  187  188 1   
   185  187  189 1   
   186  190  191 1   
   187  190  192 1   
   188  193  194 1   
   189  193  195 1   
@<TRIPOS>SUBSTRUCTURE
     1 MOL         1 TEMP              0 ****  ****    0 ROOT
