@<TRIPOS>MOLECULE
MOL
  181   177     1     0     0
SMALL
resp


@<TRIPOS>ATOM
      1 C1         10.2500    5.8960   -3.8380 c3        1 MOL     -0.309886
      2 C2          9.2530    5.6990   -2.6950 c         1 MOL      0.695349
      3 O1          8.3460    6.5580   -2.6360 o         1 MOL     -0.576716
      4 H1         10.8810    5.0120   -3.9260 hc        1 MOL      0.076118
      5 H2          9.7080    6.0490   -4.7710 hc        1 MOL      0.076118
      6 H3         10.8710    6.7670   -3.6320 hc        1 MOL      0.076118
      7 N1          9.3940    4.6990   -1.8140 n         1 MOL     -0.687411
      8 C3         10.4310    3.6260   -1.8470 c3        1 MOL      0.391507
      9 C4         11.0220    3.2150   -0.5110 c         1 MOL      0.355121
     10 O2         10.4800    3.4270    0.5590 o         1 MOL     -0.402557
     11 C5          9.8200    2.3850   -2.5170 c3        1 MOL     -0.312139
     12 C6          8.4620    2.0300   -2.0230 c         1 MOL      0.885774
     13 O3          7.6780    1.4630   -2.8610 o         1 MOL     -0.785672
     14 O4          8.2470    1.8460   -0.8100 o         1 MOL     -0.785672
     15 H4          8.8980    4.7770   -0.9400 hn        1 MOL      0.367857
     16 H5         11.2860    3.9330   -2.4360 h1        1 MOL      0.000624
     17 H6         10.4560    1.4940   -2.5390 hc        1 MOL      0.040691
     18 H7          9.6980    2.7070   -3.5460 hc        1 MOL      0.040691
     19 N2         12.1610    2.4590   -0.5640 n         1 MOL     -0.677493
     20 C7         12.7120    1.7110    0.4870 c3        1 MOL      0.390692
     21 C8         11.8770    0.5950    1.1140 c         1 MOL      0.436361
     22 O5         12.4260   -0.1090    1.9720 o         1 MOL     -0.553432
     23 C9         13.3530    2.6890    1.4610 c3        1 MOL     -0.334415
     24 H8         12.7500    2.4690   -1.3830 hn        1 MOL      0.332695
     25 H9         13.4510    1.1030   -0.0430 h1        1 MOL     -0.000330
     26 H10        12.6420    2.8420    2.2730 hc        1 MOL      0.090037
     27 H11        14.1850    2.1190    1.8780 hc        1 MOL      0.090037
     28 H12        13.8370    3.5220    0.9470 hc        1 MOL      0.090037
     29 N3         10.6030    0.2830    0.8040 n         1 MOL     -0.446464
     30 C10         9.8880   -0.8790    1.3780 c3        1 MOL      0.112709
     31 C11         9.0440   -1.5060    0.2910 c         1 MOL      0.409338
     32 O6          8.6400   -0.9610   -0.7330 o         1 MOL     -0.534958
     33 C12         8.9070   -0.4140    2.4930 c3        1 MOL     -0.099865
     34 C13         7.7330    0.4860    2.0850 c         1 MOL      0.690719
     35 O7          7.6630    1.6130    2.5650 o         1 MOL     -0.663339
     36 O8          6.7530   -0.0280    1.4590 o         1 MOL     -0.663339
     37 H13        10.0460    0.9250    0.2720 hn        1 MOL      0.381498
     38 H14        10.6250   -1.6210    1.7010 h1        1 MOL      0.036584
     39 H15         9.4430    0.1550    3.2540 hc        1 MOL      0.030877
     40 H16         8.4990   -1.2860    2.9950 hc        1 MOL      0.030877
     41 N4          8.6400   -2.7750    0.5890 n         1 MOL     -0.232445
     42 C14         7.7870   -3.6170   -0.2400 c3        1 MOL     -0.613133
     43 C15         6.3470   -3.2660   -0.4160 c         1 MOL      0.910445
     44 O9          5.9600   -2.1150   -0.2550 o         1 MOL     -0.606284
     45 H17         8.9480   -3.1770    1.4690 hn        1 MOL      0.272551
     46 H18         7.7960   -4.5890    0.2530 h1        1 MOL      0.208836
     47 H19         8.3240   -3.6750   -1.1810 h1        1 MOL      0.208836
     48 N5          5.5420   -4.2740   -0.7570 n         1 MOL     -0.713892
     49 C16         4.1390   -4.0750   -1.0360 c3        1 MOL      0.060999
     50 C17         3.4490   -3.9440    0.3080 c         1 MOL      0.734565
     51 O10         3.9430   -4.3010    1.3600 o         1 MOL     -0.513909
     52 C18         3.6010   -5.0580   -2.0520 c3        1 MOL     -0.398969
     53 C19         4.1360   -4.8790   -3.4630 c         1 MOL      0.706375
     54 N6          3.8240   -3.7610   -3.9520 n         1 MOL     -0.683361
     55 O11         4.6310   -5.7470   -4.1830 o         1 MOL     -0.575304
     56 H20         5.8620   -5.2270   -0.8380 hn        1 MOL      0.364190
     57 H21         4.0830   -3.1060   -1.5160 h1        1 MOL      0.039549
     58 H22         2.5270   -5.0400   -2.2120 hc        1 MOL      0.129678
     59 H23         3.8210   -6.0860   -1.7700 hc        1 MOL      0.129678
     60 H24         3.2710   -3.0870   -3.4490 hn        1 MOL      0.342441
     61 H25         3.9960   -3.5770   -4.9360 hn        1 MOL      0.342441
     62 N7          2.2530   -3.3340    0.1880 n         1 MOL     -0.612388
     63 C20         1.3110   -3.0280    1.2520 c3        1 MOL      0.069166
     64 C21         1.8600   -1.8380    2.0630 c         1 MOL      0.706918
     65 O12         2.8560   -1.1890    1.6730 o         1 MOL     -0.698255
     66 H26         1.9790   -3.1360   -0.7580 hn        1 MOL      0.319602
     67 H27         1.1430   -3.9120    1.8630 h1        1 MOL      0.088309
     68 H28         0.2760   -2.8850    0.9260 h1        1 MOL      0.088309
     69 N8          1.3140   -1.6130    3.2340 n         1 MOL     -0.342517
     70 C22         0.2520   -2.3690    3.8350 c3        1 MOL     -0.271152
     71 C23        -1.0950   -2.4070    3.0470 c         1 MOL      0.717834
     72 O13        -1.5800   -3.5090    2.8110 o         1 MOL     -0.562890
     73 C24        -0.0800   -1.9350    5.2600 c3        1 MOL      0.495025
     74 C25         1.1780   -2.0390    6.0940 c3        1 MOL     -0.572066
     75 O14        -0.5840   -0.6080    5.4020 oh        1 MOL     -0.599905
     76 H29         1.7520   -0.8500    3.7310 hn        1 MOL      0.279725
     77 H30         0.5670   -3.4170    3.8610 h1        1 MOL      0.094070
     78 H31        -0.8650   -2.6050    5.6100 h1        1 MOL     -0.002921
     79 H32        -1.1280   -0.6460    6.1930 ho        1 MOL      0.395286
     80 H33         1.8730   -2.8610    5.9590 hc        1 MOL      0.144792
     81 H34         1.7360   -1.0990    6.0190 hc        1 MOL      0.144792
     82 H35         0.8110   -2.0450    7.1180 hc        1 MOL      0.144792
     83 N9         -1.5820   -1.2770    2.5240 n         1 MOL     -0.953455
     84 C26        -2.8160   -1.2090    1.6800 c3        1 MOL      0.295252
     85 C27        -2.5360   -0.8410    0.2230 c         1 MOL      0.649637
     86 O15        -1.5260   -0.2220   -0.0880 o         1 MOL     -0.608418
     87 C28        -3.9410   -0.3310    2.3640 c3        1 MOL      0.018742
     88 C29        -3.6540    1.1720    2.3070 c3        1 MOL      0.176373
     89 C30        -4.1210   -0.9840    3.7490 c3        1 MOL      0.002366
     90 C31        -5.0190    1.9490    2.7470 c3        1 MOL     -0.453271
     91 H36        -1.2120   -0.4410    2.9560 hn        1 MOL      0.417971
     92 H37        -3.2880   -2.1850    1.6000 h1        1 MOL      0.100147
     93 H38        -4.8200   -0.4030    1.7300 hc        1 MOL      0.055334
     94 H39        -3.3500    1.4330    1.2930 hc        1 MOL     -0.034487
     95 H40        -2.7620    1.4300    2.8730 hc        1 MOL     -0.034487
     96 H41        -3.2550   -0.7860    4.3820 hc        1 MOL     -0.003966
     97 H42        -4.9670   -0.5620    4.2990 hc        1 MOL     -0.003966
     98 H43        -4.2620   -2.0600    3.8190 hc        1 MOL     -0.003966
     99 H44        -5.8810    1.5150    2.2230 hc        1 MOL      0.113966
    100 H45        -5.1700    1.8140    3.8100 hc        1 MOL      0.113966
    101 H46        -4.8790    2.9830    2.4370 hc        1 MOL      0.113966
    102 N10        -3.4350   -1.1690   -0.7140 n         1 MOL     -0.759413
    103 C32        -4.6630   -1.9720   -0.6510 c3        1 MOL      0.456609
    104 C33        -5.8740   -1.1150   -1.3060 c         1 MOL      0.592979
    105 O16        -5.7390   -0.0310   -1.8200 o         1 MOL     -0.599089
    106 C34        -4.4860   -3.3060   -1.3370 c3        1 MOL     -0.366291
    107 C35        -5.5960   -4.3650   -1.0570 c         1 MOL      0.706832
    108 O17        -6.4360   -4.1570   -0.1440 o         1 MOL     -0.699599
    109 O18        -5.6580   -5.3670   -1.8390 o         1 MOL     -0.699599
    110 H47        -3.3190   -0.7990   -1.6450 hn        1 MOL      0.340150
    111 H48        -5.0230   -2.0080    0.3790 h1        1 MOL     -0.106306
    112 H49        -3.5560   -3.7160   -0.9270 hc        1 MOL      0.058445
    113 H50        -4.5050   -3.1500   -2.4140 hc        1 MOL      0.058445
    114 N11        -7.0640   -1.6750   -1.2010 n         1 MOL     -0.729168
    115 C36        -8.2970   -1.0590   -1.6580 c3        1 MOL      0.740663
    116 C37        -9.3790   -1.5380   -0.7130 c         1 MOL      0.157119
    117 O19        -9.5120   -2.7550   -0.6000 o         1 MOL     -0.484218
    118 C38        -8.6040   -1.3770   -3.1570 c3        1 MOL     -0.342814
    119 C39        -9.9010   -0.8490   -3.7350 ca        1 MOL      0.109484
    120 C40       -11.1270   -1.4830   -3.4620 ca        1 MOL     -0.148563
    121 C41        -9.8830    0.2510   -4.5820 ca        1 MOL     -0.148563
    122 C42       -12.3690   -0.8630   -3.8380 ca        1 MOL     -0.124566
    123 C43       -11.1850    0.8270   -5.0660 ca        1 MOL     -0.124566
    124 C44       -12.4140    0.2580   -4.6800 ca        1 MOL     -0.169269
    125 H51        -7.1500   -2.4820   -0.5980 hn        1 MOL      0.373940
    126 H52        -8.1550    0.0140   -1.5620 h1        1 MOL     -0.094209
    127 H53        -8.5330   -2.4620   -3.0880 hc        1 MOL      0.088844
    128 H54        -7.7920   -0.9190   -3.7160 hc        1 MOL      0.088844
    129 H55       -11.1510   -2.4280   -2.9280 ha        1 MOL      0.121881
    130 H56        -9.0270    0.8170   -4.9450 ha        1 MOL      0.121881
    131 H57       -13.2650   -1.3820   -3.5220 ha        1 MOL      0.101101
    132 H58       -11.1010    1.6810   -5.7180 ha        1 MOL      0.101101
    133 H59       -13.3830    0.7090   -4.8050 ha        1 MOL      0.121217
    134 N12       -10.2700   -0.6340   -0.1750 n         1 MOL      0.105139
    135 C45       -10.3350    0.8270   -0.4450 c3        1 MOL      0.105826
    136 C46        -9.2970    1.6800    0.2510 c         1 MOL      0.542588
    137 O20        -8.3630    1.0870    0.7830 o         1 MOL     -0.621360
    138 C47       -11.7730    1.1580   -0.0310 c3        1 MOL     -0.077363
    139 C48       -12.2140    0.1410    1.0440 c3        1 MOL     -0.111211
    140 C49       -11.4170   -1.1070    0.6340 c3        1 MOL     -0.010477
    141 H60       -10.1710    0.9810   -1.5190 h1        1 MOL     -0.076087
    142 H61       -11.7460    2.1920    0.3270 hc        1 MOL      0.002534
    143 H62       -12.4030    1.1420   -0.9160 hc        1 MOL      0.002534
    144 H63       -11.7340    0.4290    1.9820 hc        1 MOL      0.063968
    145 H64       -13.2800    0.0650    1.2810 hc        1 MOL      0.063968
    146 H65       -10.9520   -1.5960    1.4950 h1        1 MOL      0.025947
    147 H66       -12.0300   -1.7570    0.0250 h1        1 MOL      0.025947
    148 N13        -9.3480    2.9920    0.2950 n         1 MOL     -0.170007
    149 C50        -8.2360    3.8850    0.7830 c3        1 MOL      0.171952
    150 C51        -8.2190    5.2980    0.1850 c         1 MOL      0.368756
    151 O21        -8.0710    6.2470    0.9290 o         1 MOL     -0.516547
    152 C52        -8.2540    3.9430    2.3240 c3        1 MOL     -0.172281
    153 C53        -9.5210    4.5090    3.0100 c3        1 MOL      0.028530
    154 C54       -10.5450    3.4490    3.1300 c         1 MOL      0.649340
    155 O22       -11.5950    3.6440    2.4020 o         1 MOL     -0.716006
    156 O23       -10.3780    2.5900    4.0150 o         1 MOL     -0.716006
    157 H67       -10.1730    3.4850   -0.0160 hn        1 MOL      0.171558
    158 H68        -7.3050    3.4580    0.4140 h1        1 MOL      0.037452
    159 H69        -7.4170    4.4370    2.8130 hc        1 MOL      0.063366
    160 H70        -8.1740    2.9060    2.6340 hc        1 MOL      0.063366
    161 H71        -9.8830    5.2900    2.3490 hc        1 MOL     -0.037027
    162 H72        -9.3070    4.9950    3.9620 hc        1 MOL     -0.037027
    163 N14        -8.4460    5.5590   -1.1310 n         1 MOL     -0.330750
    164 C55        -8.4160    4.6620   -2.2830 c3        1 MOL     -0.001237
    165 H73        -8.4020    3.6280   -1.9370 h1        1 MOL      0.026267
    166 H74        -9.3020    4.8270   -2.8960 h1        1 MOL      0.026267
    167 H75        -7.5220    4.8590   -2.8740 h1        1 MOL      0.026267
    168 H76        -8.4540    6.5490   -1.3380 hn        1 MOL      0.251696
    169 Ca1         6.2470    0.2660   -1.0350 Ca        1 MOL      1.713555
    170 O24         5.3230   -1.0810   -3.2180 oh        1 MOL     -0.798781
    171 H77         4.5910   -1.1600   -3.8240 ho        1 MOL      0.389016
    172 H78         5.8920   -1.8340   -3.4280 ho        1 MOL      0.389016
    173 O25         3.4050    0.4770   -0.4600 oh        1 MOL     -0.798781
    174 H79         3.0030    1.3360   -0.5240 ho        1 MOL      0.389016
    175 H80         3.0370    0.0870    0.3240 ho        1 MOL      0.389016
    176 O26         5.1480    2.2120    1.3810 oh        1 MOL     -0.798781
    177 H81         4.3160    1.8960    1.7500 ho        1 MOL      0.389016
    178 H82         5.8110    1.6130    1.7300 ho        1 MOL      0.389016
    179 O27         5.2020    2.7000   -1.7300 oh        1 MOL     -0.798781
    180 H83         4.4180    3.1940   -1.5090 ho        1 MOL      0.389016
    181 H84         5.5600    3.1380   -2.4940 ho        1 MOL      0.389016
@<TRIPOS>BOND
     1    1    2 1   
     2    1    4 1   
     3    1    5 1   
     4    1    6 1   
     5    2    3 2   
     6    2    7 1   
     7    7    8 1   
     8    7   15 1   
     9    8    9 1   
    10    8   11 1   
    11    8   16 1   
    12    9   10 2   
    13    9   19 1   
    14   11   12 1   
    15   11   17 1   
    16   11   18 1   
    17   12   13 1   
    18   12   14 1   
    19   19   20 1   
    20   19   24 1   
    21   20   21 1   
    22   20   23 1   
    23   20   25 1   
    24   21   22 2   
    25   21   29 1   
    26   23   26 1   
    27   23   27 1   
    28   23   28 1   
    29   29   30 1   
    30   29   37 1   
    31   30   31 1   
    32   30   33 1   
    33   30   38 1   
    34   31   32 2   
    35   31   41 1   
    36   33   34 1   
    37   33   39 1   
    38   33   40 1   
    39   34   35 1   
    40   34   36 1   
    41   41   42 1   
    42   41   45 1   
    43   42   43 1   
    44   42   46 1   
    45   42   47 1   
    46   43   44 2   
    47   43   48 1   
    48   48   49 1   
    49   48   56 1   
    50   49   50 1   
    51   49   52 1   
    52   49   57 1   
    53   50   51 2   
    54   50   62 1   
    55   52   53 1   
    56   52   58 1   
    57   52   59 1   
    58   53   54 1   
    59   53   55 2   
    60   54   60 1   
    61   54   61 1   
    62   62   63 1   
    63   62   66 1   
    64   63   64 1   
    65   63   67 1   
    66   63   68 1   
    67   64   65 2   
    68   64   69 1   
    69   69   70 1   
    70   69   76 1   
    71   70   71 1   
    72   70   73 1   
    73   70   77 1   
    74   71   72 2   
    75   71   83 1   
    76   73   74 1   
    77   73   75 1   
    78   73   78 1   
    79   74   80 1   
    80   74   81 1   
    81   74   82 1   
    82   75   79 1   
    83   83   84 1   
    84   83   91 1   
    85   84   85 1   
    86   84   87 1   
    87   84   92 1   
    88   85   86 2   
    89   85  102 1   
    90   87   88 1   
    91   87   89 1   
    92   87   93 1   
    93   88   90 1   
    94   88   94 1   
    95   88   95 1   
    96   89   96 1   
    97   89   97 1   
    98   89   98 1   
    99   90   99 1   
   100   90  100 1   
   101   90  101 1   
   102  102  103 1   
   103  102  110 1   
   104  103  104 1   
   105  103  106 1   
   106  103  111 1   
   107  104  105 2   
   108  104  114 1   
   109  106  107 1   
   110  106  112 1   
   111  106  113 1   
   112  107  108 1   
   113  107  109 1   
   114  114  115 1   
   115  114  125 1   
   116  115  116 1   
   117  115  118 1   
   118  115  126 1   
   119  116  117 2   
   120  116  134 1   
   121  118  119 1   
   122  118  127 1   
   123  118  128 1   
   124  119  120 ar  
   125  119  121 ar  
   126  120  122 ar  
   127  120  129 1   
   128  121  123 ar  
   129  121  130 1   
   130  122  124 ar  
   131  122  131 1   
   132  123  124 ar  
   133  123  132 1   
   134  124  133 1   
   135  134  135 1   
   136  134  140 1   
   137  135  136 1   
   138  135  138 1   
   139  135  141 1   
   140  136  137 2   
   141  136  148 1   
   142  138  139 1   
   143  138  142 1   
   144  138  143 1   
   145  139  140 1   
   146  139  144 1   
   147  139  145 1   
   148  140  146 1   
   149  140  147 1   
   150  148  149 1   
   151  148  157 1   
   152  149  150 1   
   153  149  152 1   
   154  149  158 1   
   155  150  151 2   
   156  150  163 1   
   157  152  153 1   
   158  152  159 1   
   159  152  160 1   
   160  153  154 1   
   161  153  161 1   
   162  153  162 1   
   163  154  155 1   
   164  154  156 1   
   165  163  164 1   
   166  163  168 1   
   167  164  165 1   
   168  164  166 1   
   169  164  167 1   
   170  170  171 1   
   171  170  172 1   
   172  173  174 1   
   173  173  175 1   
   174  176  177 1   
   175  176  178 1   
   176  179  180 1   
   177  179  181 1   
@<TRIPOS>SUBSTRUCTURE
     1 MOL         1 TEMP              0 ****  ****    0 ROOT
