@<TRIPOS>MOLECULE
MOL
  178   175     1     0     0
SMALL
resp


@<TRIPOS>ATOM
      1 C1          1.3630    6.8470   -2.8120 c3        1 MOL     -0.409438
      2 C2          2.4180    6.2710   -1.9870 c         1 MOL      0.779723
      3 O1          2.7020    6.8740   -0.9200 o         1 MOL     -0.607276
      4 H1          1.5380    6.5880   -3.8560 hc        1 MOL      0.100573
      5 H2          0.3980    6.4520   -2.4970 hc        1 MOL      0.100573
      6 H3          1.3660    7.9310   -2.7020 hc        1 MOL      0.100573
      7 N1          3.1640    5.2620   -2.5170 n         1 MOL     -0.724881
      8 C3          4.4920    4.7500   -2.0700 c3        1 MOL      0.374227
      9 C4          4.3630    4.0420   -0.6810 c         1 MOL      0.579346
     10 O2          3.8990    2.9240   -0.5150 o         1 MOL     -0.553789
     11 C5          5.0110    3.8900   -3.1420 c3        1 MOL     -0.388618
     12 C6          6.4670    3.4500   -2.9000 c         1 MOL      0.750360
     13 O3          6.7920    2.2690   -3.2440 o         1 MOL     -0.731057
     14 O4          7.2600    4.2530   -2.3760 o         1 MOL     -0.731057
     15 H4          2.9450    4.9570   -3.4530 hn        1 MOL      0.332249
     16 H5          5.2190    5.5490   -1.9000 h1        1 MOL     -0.014960
     17 H6          5.0600    4.4270   -4.0940 hc        1 MOL      0.061473
     18 H7          4.4520    2.9680   -3.2880 hc        1 MOL      0.061473
     19 N2          4.8050    4.7470    0.3630 n         1 MOL     -0.607036
     20 C7          4.6350    4.2090    1.7660 c3        1 MOL      0.609225
     21 C8          3.1140    4.0130    2.2250 c         1 MOL      0.297655
     22 O5          2.3300    4.8710    1.9500 o         1 MOL     -0.508029
     23 C9          5.4980    5.0350    2.7670 c3        1 MOL     -0.346747
     24 H8          5.2700    5.6270    0.1750 hn        1 MOL      0.328829
     25 H9          5.0720    3.2030    1.8310 h1        1 MOL     -0.121106
     26 H10         5.1420    6.0690    2.7080 hc        1 MOL      0.075198
     27 H11         5.3890    4.6460    3.7680 hc        1 MOL      0.075198
     28 H12         6.5220    5.0890    2.3810 hc        1 MOL      0.075198
     29 N3          2.7560    2.9300    2.9290 n         1 MOL     -0.197729
     30 C10         3.5830    1.9040    3.6010 c3        1 MOL     -0.194371
     31 C11         4.2400    0.8530    2.6510 c         1 MOL      0.894062
     32 O6          3.5670    0.2330    1.8190 o         1 MOL     -0.729525
     33 C12         2.8530    1.1330    4.7700 c3        1 MOL     -0.149039
     34 C13         1.6820    0.2740    4.3430 c         1 MOL      0.587089
     35 O7          1.1160    0.6350    3.2960 o         1 MOL     -0.616908
     36 O8          1.3150   -0.6370    5.1430 o         1 MOL     -0.616908
     37 H13         1.7770    2.8270    3.1150 hn        1 MOL      0.239055
     38 H14         4.4190    2.3970    4.1010 h1        1 MOL      0.025380
     39 H15         2.5150    1.8790    5.4850 hc        1 MOL      0.039105
     40 H16         3.5810    0.4560    5.2290 hc        1 MOL      0.039105
     41 N4          5.5540    0.6010    2.7590 n         1 MOL     -0.523780
     42 C14         6.1850   -0.5480    2.1180 c3        1 MOL     -0.112511
     43 C15         6.4510   -0.3350    0.6160 c         1 MOL      0.601214
     44 O9          6.8580    0.7720    0.2340 o         1 MOL     -0.490168
     45 H17         6.1230    1.1270    3.4190 hn        1 MOL      0.303257
     46 H18         5.4260   -1.3300    2.1980 h1        1 MOL      0.091620
     47 H19         7.1140   -0.8240    2.6060 h1        1 MOL      0.091620
     48 N5          6.4420   -1.3430   -0.2870 n         1 MOL     -0.492907
     49 C16         6.2140   -2.7890   -0.0640 c3        1 MOL      0.071094
     50 C17         5.4280   -3.3670   -1.1380 c         1 MOL      0.460642
     51 O10         5.1110   -4.5310   -0.9690 o         1 MOL     -0.519048
     52 C18         7.5140   -3.5790    0.0360 c3        1 MOL     -0.281971
     53 C19         8.5480   -3.0550    0.9850 c         1 MOL      0.715554
     54 N6          8.2180   -2.9690    2.2910 n         1 MOL     -0.813272
     55 O11         9.6190   -2.6710    0.5670 o         1 MOL     -0.541201
     56 H20         6.7160   -1.0460   -1.2090 hn        1 MOL      0.287680
     57 H21         5.5690   -2.8420    0.8130 h1        1 MOL      0.107604
     58 H22         7.9170   -3.5200   -0.9790 hc        1 MOL      0.083469
     59 H23         7.3030   -4.6020    0.3340 hc        1 MOL      0.083469
     60 H24         7.3700   -3.3470    2.6830 hn        1 MOL      0.353364
     61 H25         8.8290   -2.4770    2.9160 hn        1 MOL      0.353364
     62 N7          5.1200   -2.6570   -2.2060 n         1 MOL     -0.097543
     63 C20         4.4910   -3.1760   -3.4380 c3        1 MOL     -0.319060
     64 C21         3.1640   -4.0010   -3.3190 c         1 MOL      0.586829
     65 O12         2.8420   -4.7420   -4.2380 o         1 MOL     -0.536666
     66 H26         5.5600   -1.7520   -2.3160 hn        1 MOL      0.220242
     67 H27         5.2520   -3.7880   -3.9160 h1        1 MOL      0.134251
     68 H28         4.3350   -2.2800   -4.0440 h1        1 MOL      0.134251
     69 N8          2.3840   -3.8280   -2.2060 n         1 MOL     -0.253021
     70 C22         1.1850   -4.6020   -1.9050 c3        1 MOL     -0.243444
     71 C23         0.0680   -3.5920   -1.4630 c         1 MOL      0.534454
     72 O13         0.3610   -2.4850   -1.0670 o         1 MOL     -0.548264
     73 C24         1.5110   -5.7110   -0.9060 c3        1 MOL      0.468530
     74 C25         2.3210   -6.8710   -1.3180 c3        1 MOL     -0.400577
     75 O14         2.0280   -5.1730    0.2720 oh        1 MOL     -0.693264
     76 H29         2.8380   -3.3160   -1.4680 hn        1 MOL      0.196284
     77 H30         0.8580   -5.1090   -2.8150 h1        1 MOL      0.137483
     78 H31         0.6540   -6.1960   -0.4300 h1        1 MOL     -0.026651
     79 H32         1.7310   -5.7450    0.9830 ho        1 MOL      0.465291
     80 H33         3.3090   -6.6030   -1.6870 hc        1 MOL      0.102559
     81 H34         2.5210   -7.5230   -0.4690 hc        1 MOL      0.102559
     82 H35         1.7120   -7.3340   -2.0970 hc        1 MOL      0.102559
     83 N9         -1.2120   -3.9730   -1.5990 n         1 MOL     -0.240912
     84 C26        -2.4730   -3.3280   -1.2140 c3        1 MOL     -0.385465
     85 C27        -2.8120   -3.4570    0.2970 c         1 MOL      0.611344
     86 O15        -3.0470   -4.5830    0.8050 o         1 MOL     -0.551216
     87 C28        -3.6720   -3.8070   -2.0760 c3        1 MOL      0.328378
     88 C29        -5.0400   -3.0810   -1.8320 c3        1 MOL      0.305861
     89 C30        -3.3720   -3.7230   -3.6620 c3        1 MOL     -0.703998
     90 C31        -6.1750   -4.0340   -2.0540 c3        1 MOL     -0.199380
     91 H36        -1.3720   -4.8620   -2.0410 hn        1 MOL      0.213173
     92 H37        -2.2540   -2.3170   -1.5420 h1        1 MOL      0.201295
     93 H38        -3.8020   -4.8540   -1.8290 hc        1 MOL     -0.011578
     94 H39        -5.2090   -2.2550   -2.5230 hc        1 MOL     -0.084105
     95 H40        -5.0080   -2.7060   -0.8080 hc        1 MOL     -0.084105
     96 H41        -2.8050   -4.5920   -4.0120 hc        1 MOL      0.166351
     97 H42        -4.2440   -3.6020   -4.3120 hc        1 MOL      0.166351
     98 H43        -2.6390   -2.9500   -3.8770 hc        1 MOL      0.166351
     99 H44        -6.0620   -4.4740   -3.0530 hc        1 MOL      0.030395
    100 H45        -6.1210   -4.7630   -1.2530 hc        1 MOL      0.030395
    101 H46        -7.1270   -3.5200   -1.9330 hc        1 MOL      0.030395
    102 N10        -3.1620   -2.3190    0.9500 n         1 MOL     -0.528157
    103 C32        -3.6400   -2.3150    2.3180 c3        1 MOL     -0.059779
    104 C33        -4.8030   -1.4220    2.5830 c         1 MOL      0.436831
    105 O16        -5.2120   -1.3080    3.7610 o         1 MOL     -0.565944
    106 C34        -2.4300   -2.1450    3.2950 c3        1 MOL      0.181671
    107 C35        -1.0560   -2.7240    2.8880 c         1 MOL      0.580948
    108 O17        -0.6960   -3.6320    3.6700 o         1 MOL     -0.687965
    109 O18        -0.2070   -2.1000    2.1640 o         1 MOL     -0.687965
    110 H47        -3.0880   -1.4350    0.4650 hn        1 MOL      0.343826
    111 H48        -4.1210   -3.2780    2.4860 h1        1 MOL      0.089990
    112 H49        -2.7790   -2.5700    4.2370 hc        1 MOL     -0.020090
    113 H50        -2.2810   -1.0670    3.4010 hc        1 MOL     -0.020090
    114 N11        -5.3030   -0.7470    1.5010 n         1 MOL     -0.121760
    115 C36        -6.4530    0.1790    1.5390 c3        1 MOL      0.083702
    116 C37        -6.1200    1.4680    0.7120 c         1 MOL      0.336447
    117 O19        -6.6980    1.5500   -0.3950 o         1 MOL     -0.506386
    118 C38        -7.5690   -0.7020    0.9940 c3        1 MOL     -0.129717
    119 C39        -9.0000   -0.2930    1.1190 ca        1 MOL      0.171724
    120 C40        -9.6140    0.2110   -0.0720 ca        1 MOL     -0.183936
    121 C41        -9.7520   -0.6570    2.2110 ca        1 MOL     -0.183936
    122 C42       -10.9990    0.4400   -0.0360 ca        1 MOL     -0.110932
    123 C43       -11.0720   -0.3150    2.2120 ca        1 MOL     -0.110932
    124 C44       -11.7350    0.2040    1.0860 ca        1 MOL     -0.131044
    125 H51        -4.9610   -1.0520    0.6000 hn        1 MOL      0.157453
    126 H52        -6.7380    0.4970    2.5330 h1        1 MOL      0.033095
    127 H53        -7.4880   -1.6720    1.4980 hc        1 MOL      0.044380
    128 H54        -7.3510   -0.9340   -0.0550 hc        1 MOL      0.044380
    129 H55        -9.0910    0.4190   -0.9970 ha        1 MOL      0.128894
    130 H56        -9.2280   -0.9040    3.1270 ha        1 MOL      0.128894
    131 H57       -11.4000    0.8900   -0.9370 ha        1 MOL      0.091839
    132 H58       -11.6760   -0.5710    3.0760 ha        1 MOL      0.091839
    133 H59       -12.8220    0.2190    1.0980 ha        1 MOL      0.092505
    134 N12        -5.2180    2.3650    1.1990 n         1 MOL     -0.148043
    135 C45        -4.9190    3.6810    0.5450 c3        1 MOL      0.019698
    136 C46        -4.5870    3.6170   -0.9590 c         1 MOL      0.153801
    137 O20        -4.7640    4.6000   -1.7200 o         1 MOL     -0.480691
    138 C47        -3.7640    4.2270    1.3190 c3        1 MOL     -0.016497
    139 C48        -3.8310    3.5310    2.7160 c3        1 MOL     -0.220603
    140 C49        -4.3950    2.2020    2.3580 c3        1 MOL      0.054337
    141 H60        -5.7610    4.3570    0.7190 h1        1 MOL      0.068578
    142 H61        -2.8630    3.9970    0.7410 hc        1 MOL      0.062559
    143 H62        -3.7290    5.3120    1.4360 hc        1 MOL      0.062559
    144 H63        -2.8310    3.4930    3.1500 hc        1 MOL      0.081708
    145 H64        -4.5350    3.9540    3.4330 hc        1 MOL      0.081708
    146 H65        -3.6500    1.4710    2.0370 h1        1 MOL      0.060087
    147 H66        -4.9560    1.7160    3.1530 h1        1 MOL      0.060087
    148 N13        -4.0300    2.5030   -1.4250 n         1 MOL      0.032550
    149 C50        -3.5870    2.2050   -2.7650 c3        1 MOL     -0.324370
    150 C51        -4.7140    2.3110   -3.7810 c         1 MOL      0.486843
    151 O21        -4.6260    2.9780   -4.8020 o         1 MOL     -0.533711
    152 C52        -2.8660    0.8740   -2.9200 c3        1 MOL      0.181735
    153 C53        -1.5870    0.6590   -2.0310 c3        1 MOL     -0.312053
    154 C54        -1.9630    0.4900   -0.5590 c         1 MOL      0.786090
    155 O22        -1.1210    0.5400    0.3540 o         1 MOL     -0.783774
    156 O23        -3.1200    0.2830   -0.2590 o         1 MOL     -0.783774
    157 H67        -3.9990    1.7210   -0.7780 hn        1 MOL      0.341494
    158 H68        -2.8760    2.9790   -3.0570 h1        1 MOL      0.122928
    159 H69        -2.5310    0.6740   -3.9450 hc        1 MOL     -0.035829
    160 H70        -3.6560    0.1630   -2.6660 hc        1 MOL     -0.035829
    161 H71        -1.0280    1.5900   -2.1620 hc        1 MOL      0.075427
    162 H72        -1.0650   -0.2420   -2.3580 hc        1 MOL      0.075427
    163 N14        -5.7920    1.6230   -3.3870 n         1 MOL     -0.100237
    164 C55        -6.9910    1.4490   -4.1380 c3        1 MOL     -0.382353
    165 H73        -6.7530    0.9950   -5.1010 h1        1 MOL      0.125851
    166 H74        -7.6730    0.7990   -3.5900 h1        1 MOL      0.125851
    167 H75        -7.4620    2.4170   -4.3000 h1        1 MOL      0.125851
    168 H76        -5.7190    1.1230   -2.5220 hn        1 MOL      0.216237
    169 Ca1         1.2680   -0.4960    0.7310 Ca        1 MOL      1.745325
    170 O24         2.9060   -2.5700    0.6930 oh        1 MOL     -0.864848
    171 H77         3.1790   -2.7980    1.5770 ho        1 MOL      0.408862
    172 H78         2.4630   -3.3640    0.3700 ho        1 MOL      0.408862
    173 O25         3.1630    0.0280   -1.1340 oh        1 MOL     -0.864848
    174 H79         3.8380   -0.1390   -1.7870 ho        1 MOL      0.408862
    175 H80         3.4960    0.7800   -0.6420 ho        1 MOL      0.408862
    176 O26         1.4470    2.0440    0.0520 oh        1 MOL     -0.864848
    177 H81         0.8730    2.7040    0.4440 ho        1 MOL      0.408862
    178 H82         2.1910    2.5340   -0.2900 ho        1 MOL      0.408862
@<TRIPOS>BOND
     1    1    2 1   
     2    1    4 1   
     3    1    5 1   
     4    1    6 1   
     5    2    3 2   
     6    2    7 1   
     7    7    8 1   
     8    7   15 1   
     9    8    9 1   
    10    8   11 1   
    11    8   16 1   
    12    9   10 2   
    13    9   19 1   
    14   11   12 1   
    15   11   17 1   
    16   11   18 1   
    17   12   13 1   
    18   12   14 1   
    19   19   20 1   
    20   19   24 1   
    21   20   21 1   
    22   20   23 1   
    23   20   25 1   
    24   21   22 2   
    25   21   29 1   
    26   23   26 1   
    27   23   27 1   
    28   23   28 1   
    29   29   30 1   
    30   29   37 1   
    31   30   31 1   
    32   30   33 1   
    33   30   38 1   
    34   31   32 2   
    35   31   41 1   
    36   33   34 1   
    37   33   39 1   
    38   33   40 1   
    39   34   35 1   
    40   34   36 1   
    41   41   42 1   
    42   41   45 1   
    43   42   43 1   
    44   42   46 1   
    45   42   47 1   
    46   43   44 2   
    47   43   48 1   
    48   48   49 1   
    49   48   56 1   
    50   49   50 1   
    51   49   52 1   
    52   49   57 1   
    53   50   51 2   
    54   50   62 1   
    55   52   53 1   
    56   52   58 1   
    57   52   59 1   
    58   53   54 1   
    59   53   55 2   
    60   54   60 1   
    61   54   61 1   
    62   62   63 1   
    63   62   66 1   
    64   63   64 1   
    65   63   67 1   
    66   63   68 1   
    67   64   65 2   
    68   64   69 1   
    69   69   70 1   
    70   69   76 1   
    71   70   71 1   
    72   70   73 1   
    73   70   77 1   
    74   71   72 2   
    75   71   83 1   
    76   73   74 1   
    77   73   75 1   
    78   73   78 1   
    79   74   80 1   
    80   74   81 1   
    81   74   82 1   
    82   75   79 1   
    83   83   84 1   
    84   83   91 1   
    85   84   85 1   
    86   84   87 1   
    87   84   92 1   
    88   85   86 2   
    89   85  102 1   
    90   87   88 1   
    91   87   89 1   
    92   87   93 1   
    93   88   90 1   
    94   88   94 1   
    95   88   95 1   
    96   89   96 1   
    97   89   97 1   
    98   89   98 1   
    99   90   99 1   
   100   90  100 1   
   101   90  101 1   
   102  102  103 1   
   103  102  110 1   
   104  103  104 1   
   105  103  106 1   
   106  103  111 1   
   107  104  105 2   
   108  104  114 1   
   109  106  107 1   
   110  106  112 1   
   111  106  113 1   
   112  107  108 1   
   113  107  109 1   
   114  114  115 1   
   115  114  125 1   
   116  115  116 1   
   117  115  118 1   
   118  115  126 1   
   119  116  117 2   
   120  116  134 1   
   121  118  119 1   
   122  118  127 1   
   123  118  128 1   
   124  119  120 ar  
   125  119  121 ar  
   126  120  122 ar  
   127  120  129 1   
   128  121  123 ar  
   129  121  130 1   
   130  122  124 ar  
   131  122  131 1   
   132  123  124 ar  
   133  123  132 1   
   134  124  133 1   
   135  134  135 1   
   136  134  140 1   
   137  135  136 1   
   138  135  138 1   
   139  135  141 1   
   140  136  137 2   
   141  136  148 1   
   142  138  139 1   
   143  138  142 1   
   144  138  143 1   
   145  139  140 1   
   146  139  144 1   
   147  139  145 1   
   148  140  146 1   
   149  140  147 1   
   150  148  149 1   
   151  148  157 1   
   152  149  150 1   
   153  149  152 1   
   154  149  158 1   
   155  150  151 2   
   156  150  163 1   
   157  152  153 1   
   158  152  159 1   
   159  152  160 1   
   160  153  154 1   
   161  153  161 1   
   162  153  162 1   
   163  154  155 1   
   164  154  156 1   
   165  163  164 1   
   166  163  168 1   
   167  164  165 1   
   168  164  166 1   
   169  164  167 1   
   170  170  171 1   
   171  170  172 1   
   172  173  174 1   
   173  173  175 1   
   174  176  177 1   
   175  176  178 1   
@<TRIPOS>SUBSTRUCTURE
     1 MOL         1 TEMP              0 ****  ****    0 ROOT
