@<TRIPOS>MOLECULE
MOL
  198   191     1     0     0
SMALL
resp


@<TRIPOS>ATOM
      1 C1          3.1680    6.2600    0.1380 c3        1 MOL     -0.366402
      2 C2          4.6890    6.1110    0.3270 c         1 MOL      0.729845
      3 O1          5.1780    6.5090    1.3410 o         1 MOL     -0.562760
      4 H1          2.9610    6.6140   -0.8720 hc        1 MOL      0.094134
      5 H2          2.6860    5.2950    0.2910 hc        1 MOL      0.094134
      6 H3          2.7800    6.9790    0.8610 hc        1 MOL      0.094134
      7 N1          5.4500    5.5710   -0.6370 n         1 MOL     -0.710200
      8 C3          6.9210    5.2990   -0.6270 c3        1 MOL      0.472620
      9 C4          7.5250    4.1820    0.2870 c         1 MOL      0.408772
     10 O2          6.9530    3.7800    1.2870 o         1 MOL     -0.495514
     11 C5          7.7920    6.6330   -0.6020 c3        1 MOL     -0.370432
     12 C6          9.0090    6.5210   -1.4840 c         1 MOL      0.927201
     13 O3          9.6580    7.5750   -1.6920 o         1 MOL     -0.772243
     14 O4          9.3200    5.4680   -2.0160 o         1 MOL     -0.772243
     15 H4          4.9500    5.2420   -1.4510 hn        1 MOL      0.310714
     16 H5          7.1030    5.0230   -1.6680 h1        1 MOL     -0.004364
     17 H6          8.0920    6.9480    0.3980 hc        1 MOL      0.083013
     18 H7          7.2010    7.4540   -1.0040 hc        1 MOL      0.083013
     19 N2          8.6530    3.6070   -0.0770 n         1 MOL     -0.676142
     20 C7          9.5760    2.7260    0.6970 c3        1 MOL      0.045288
     21 C8          9.0810    1.2520    0.7300 c         1 MOL      0.596974
     22 O5          9.9090    0.3830    0.8890 o         1 MOL     -0.570570
     23 C9          9.9880    3.3980    2.0610 c3        1 MOL     -0.051428
     24 C10        10.6240    4.7720    1.9740 c3        1 MOL     -0.225019
     25 C11        11.4980    5.1030    0.7630 c3        1 MOL     -0.076419
     26 C12        12.0950    6.4850    0.8320 c3        1 MOL      0.039246
     27 N3         12.1770    7.2500   -0.4750 n4        1 MOL     -0.352912
     28 H8          9.0480    3.8210   -0.9810 hn        1 MOL      0.414767
     29 H9         10.4760    2.6050    0.0920 h1        1 MOL      0.069175
     30 H10        10.6970    2.6700    2.4660 hc        1 MOL      0.057335
     31 H11         9.1640    3.3640    2.7720 hc        1 MOL      0.057335
     32 H12        11.2250    4.8510    2.8820 hc        1 MOL      0.108320
     33 H13         9.7620    5.4340    2.0090 hc        1 MOL      0.108320
     34 H14        10.9230    5.0960   -0.1530 hc        1 MOL      0.069970
     35 H15        12.2810    4.3510    0.6160 hc        1 MOL      0.069970
     36 H16        13.0950    6.3630    1.2300 hx        1 MOL      0.054232
     37 H17        11.4620    7.0390    1.5300 hx        1 MOL      0.054232
     38 H18        12.7640    6.8100   -1.1690 hn        1 MOL      0.309881
     39 H19        11.2680    7.3230   -0.8950 hn        1 MOL      0.309881
     40 H20        12.6220    8.1400   -0.2720 hn        1 MOL      0.309881
     41 N4          7.7490    1.0580    0.5610 n         1 MOL     -0.550624
     42 C13         7.1130   -0.2380    0.5540 c3        1 MOL      0.470925
     43 C14         6.7870   -0.7530   -0.8890 c         1 MOL      0.399291
     44 O6          6.4360    0.1010   -1.6940 o         1 MOL     -0.559611
     45 C15         5.9070   -0.1100    1.4480 c3        1 MOL     -0.212825
     46 C16         5.1260   -1.4580    1.5730 c         1 MOL      0.688409
     47 O7          5.5820   -2.4030    2.2420 o         1 MOL     -0.788232
     48 O8          4.1050   -1.6800    0.9480 o         1 MOL     -0.788232
     49 H21         7.1650    1.8750    0.4900 hn        1 MOL      0.275460
     50 H22         7.8200   -0.9420    0.9870 h1        1 MOL     -0.035903
     51 H23         5.1580    0.5640    1.0160 hc        1 MOL      0.064100
     52 H24         6.1640    0.3050    2.4190 hc        1 MOL      0.064100
     53 N5          6.7710   -2.0490   -1.1770 n         1 MOL     -0.251175
     54 C17         7.2680   -3.1990   -0.4450 c3        1 MOL      0.003267
     55 C18         6.4780   -4.3870   -0.8890 c         1 MOL      0.533790
     56 O9          6.3890   -4.5340   -2.1200 o         1 MOL     -0.543741
     57 H25         6.3520   -2.2250   -2.0780 hn        1 MOL      0.212902
     58 H26         7.2600   -3.2860    0.6450 h1        1 MOL      0.043473
     59 H27         8.3190   -3.4040   -0.6350 h1        1 MOL      0.043473
     60 N6          5.9500   -5.2090    0.0400 n         1 MOL     -0.395826
     61 C19         4.8730   -6.1500   -0.2140 c3        1 MOL      0.113633
     62 C20         3.5420   -5.4490   -0.2280 c         1 MOL      0.433920
     63 O10         3.3410   -4.3430    0.1930 o         1 MOL     -0.552755
     64 C21         4.9700   -7.2300    0.9090 c3        1 MOL     -0.237409
     65 C22         5.0110   -6.7610    2.3560 c         1 MOL      0.764318
     66 O11         4.7930   -5.5370    2.5280 o         1 MOL     -0.690324
     67 O12         5.2120   -7.6020    3.2680 o         1 MOL     -0.690324
     68 H28         6.0390   -5.0170    1.0300 hn        1 MOL      0.255657
     69 H29         5.0750   -6.6020   -1.1810 h1        1 MOL      0.051678
     70 H30         5.8810   -7.8130    0.7640 hc        1 MOL      0.040626
     71 H31         4.0850   -7.8780    0.8640 hc        1 MOL      0.040626
     72 N7          2.6060   -6.2630   -0.7160 n         1 MOL     -0.361708
     73 C23         1.1790   -5.9430   -0.7600 c3        1 MOL      0.170813
     74 C24         0.6560   -4.8020   -1.7070 c         1 MOL      0.427282
     75 O13        -0.3740   -4.9530   -2.4190 o         1 MOL     -0.529839
     76 H32         2.8870   -7.2080   -0.9190 hn        1 MOL      0.284688
     77 H33         0.8730   -5.6250    0.2380 h1        1 MOL     -0.000508
     78 H34         0.5120   -6.7740   -0.9820 h1        1 MOL     -0.000508
     79 N8          1.4440   -3.7010   -1.7950 n         1 MOL     -0.349356
     80 C25         1.1570   -2.5410   -2.7160 c3        1 MOL      0.056783
     81 C26         0.6540   -1.2940   -1.9780 c         1 MOL      0.229871
     82 O14         0.8710   -1.1170   -0.7850 o         1 MOL     -0.403823
     83 C27         2.4530   -2.3170   -3.6250 c3        1 MOL      0.319648
     84 C28         3.7150   -1.7750   -2.8940 c3        1 MOL     -0.271997
     85 O15         2.9390   -3.5070   -4.2160 oh        1 MOL     -0.598252
     86 H35         2.2700   -3.7040   -1.2070 hn        1 MOL      0.203573
     87 H36         0.3250   -2.8190   -3.3670 h1        1 MOL      0.059536
     88 H37         2.1790   -1.6510   -4.4460 h1        1 MOL     -0.015275
     89 H38         2.4460   -3.6480   -5.0270 ho        1 MOL      0.390030
     90 H39         3.6390   -0.7280   -2.5840 hc        1 MOL      0.109826
     91 H40         3.8970   -2.3510   -1.9820 hc        1 MOL      0.109826
     92 H41         4.5750   -1.8210   -3.5560 hc        1 MOL      0.109826
     93 N9         -0.0130   -0.3530   -2.7060 n         1 MOL     -0.075114
     94 C29        -0.5360    0.8800   -2.0990 c3        1 MOL     -0.179255
     95 C30        -1.8570    0.5880   -1.3690 c         1 MOL      0.413217
     96 O16        -2.0580    1.3360   -0.4270 o         1 MOL     -0.527284
     97 C31        -0.6580    2.0630   -3.1650 c3        1 MOL      0.108499
     98 C32        -1.3190    1.6220   -4.4910 c3        1 MOL      0.000323
     99 C33         0.7810    2.5860   -3.4440 c3        1 MOL     -0.091059
    100 C34        -2.3740    2.6340   -4.9950 c3        1 MOL     -0.284526
    101 H42        -0.1250   -0.4040   -3.7050 hn        1 MOL      0.147880
    102 H43         0.0890    1.2620   -1.2950 h1        1 MOL      0.153125
    103 H44        -1.2140    2.8820   -2.7220 hc        1 MOL      0.052187
    104 H45        -1.7470    0.6560   -4.2280 hc        1 MOL      0.018892
    105 H46        -0.6120    1.4500   -5.3060 hc        1 MOL      0.018892
    106 H47         0.6690    3.5070   -4.0230 hc        1 MOL      0.018161
    107 H48         1.2380    2.9280   -2.5110 hc        1 MOL      0.018161
    108 H49         1.4060    1.8870   -4.0020 hc        1 MOL      0.018161
    109 H50        -2.0410    3.6340   -4.7340 hc        1 MOL      0.079755
    110 H51        -2.4560    2.6380   -6.0840 hc        1 MOL      0.079755
    111 H52        -3.4100    2.5110   -4.7020 hc        1 MOL      0.079755
    112 N10        -2.6650   -0.4220   -1.6170 n         1 MOL     -0.161756
    113 C35        -3.8710   -0.8160   -0.9490 c3        1 MOL     -0.128661
    114 C36        -4.9590   -1.1900   -1.9890 c         1 MOL      0.538989
    115 O17        -4.5930   -1.6640   -3.0070 o         1 MOL     -0.492116
    116 C37        -3.7080   -2.0300   -0.0180 c3        1 MOL      0.599491
    117 C38        -2.8820   -3.1510   -0.6290 c3        1 MOL     -0.434041
    118 O18        -2.9810   -1.6630    1.2020 oh        1 MOL     -0.720079
    119 H53        -2.3650   -1.0750   -2.3350 hn        1 MOL      0.168536
    120 H54        -4.1040    0.0590   -0.3390 h1        1 MOL      0.076013
    121 H55        -4.6730   -2.4320    0.2760 h1        1 MOL     -0.084689
    122 H56        -3.6780   -1.3010    1.7580 ho        1 MOL      0.397192
    123 H57        -1.8250   -2.9100   -0.5150 hc        1 MOL      0.111161
    124 H58        -2.8560   -4.0200    0.0280 hc        1 MOL      0.111161
    125 H59        -3.2370   -3.4280   -1.6250 hc        1 MOL      0.111161
    126 N11        -6.2200   -0.8560   -1.6180 n         1 MOL     -0.479266
    127 C39        -7.3900   -1.1420   -2.4740 c3        1 MOL     -0.014460
    128 C40        -8.6480   -0.4240   -2.0560 c         1 MOL      0.537120
    129 O19        -9.3860   -0.0540   -2.9850 o         1 MOL     -0.526649
    130 C41        -7.5950   -2.7030   -2.4030 c3        1 MOL      0.236329
    131 C42        -8.6670   -3.2570   -3.3530 c3        1 MOL     -0.454915
    132 O20        -8.0390   -3.1190   -1.1020 oh        1 MOL     -0.643021
    133 H60        -6.3540   -0.5110   -0.6840 hn        1 MOL      0.246302
    134 H61        -7.2100   -0.8280   -3.5020 h1        1 MOL      0.137947
    135 H62        -6.6060   -3.1180   -2.5540 h1        1 MOL      0.058380
    136 H63        -7.9040   -4.0730   -1.0780 ho        1 MOL      0.419455
    137 H64        -8.3590   -2.9220   -4.3420 hc        1 MOL      0.133352
    138 H65        -8.8210   -4.3310   -3.2680 hc        1 MOL      0.133352
    139 H66        -9.5550   -2.6830   -3.1050 hc        1 MOL      0.133352
    140 N12        -8.9150   -0.2530   -0.7480 n         1 MOL     -0.445040
    141 C43       -10.1100    0.3790   -0.2690 c3        1 MOL      0.118868
    142 C44        -9.8270    1.0810    1.0720 c         1 MOL      0.345520
    143 O21        -9.2060    0.5570    2.0110 o         1 MOL     -0.501359
    144 C45       -11.3970   -0.5310   -0.2140 c3        1 MOL     -0.294829
    145 C46       -12.7400    0.2830    0.0160 c3        1 MOL      0.293407
    146 C47       -13.8890   -0.6760    0.2940 c3        1 MOL     -0.254839
    147 C48       -15.2150   -0.0330    0.6600 c3        1 MOL     -0.249857
    148 N13       -15.0190    1.0250    1.6570 n4        1 MOL     -0.200932
    149 H67        -8.2880   -0.7720   -0.1600 hn        1 MOL      0.315935
    150 H68       -10.3760    1.1550   -0.9930 h1        1 MOL      0.055683
    151 H69       -11.2080   -1.2580    0.5830 hc        1 MOL      0.112684
    152 H70       -11.5230   -1.0780   -1.1450 hc        1 MOL      0.112684
    153 H71       -13.0230    0.8910   -0.8370 hc        1 MOL     -0.029600
    154 H72       -12.6660    0.8630    0.9390 hc        1 MOL     -0.029600
    155 H73       -13.6300   -1.3710    1.0990 hc        1 MOL      0.092818
    156 H74       -14.0260   -1.1890   -0.6570 hc        1 MOL      0.092818
    157 H75       -15.8250   -0.7990    1.1440 hx        1 MOL      0.172212
    158 H76       -15.7150    0.2720   -0.2590 hx        1 MOL      0.172212
    159 H77       -14.3820    0.7130    2.3620 hn        1 MOL      0.280340
    160 H78       -14.6380    1.8440    1.1880 hn        1 MOL      0.280340
    161 H79       -15.9020    1.3840    2.0160 hn        1 MOL      0.280340
    162 N14       -10.3400    2.3120    1.2670 n         1 MOL     -0.121440
    163 C49       -10.2240    3.1480    2.4660 c3        1 MOL      0.245208
    164 C50        -8.7700    3.6890    2.7140 c         1 MOL      0.395782
    165 O22        -8.1510    3.2770    3.6810 o         1 MOL     -0.504910
    166 C51       -11.3200    4.2250    2.3420 c3        1 MOL     -0.371847
    167 C52       -12.6470    3.5730    2.5470 c3        1 MOL     -0.190660
    168 C53       -13.6980    4.3550    1.7780 c         1 MOL      0.660617
    169 O23       -13.9950    5.5050    2.1630 o         1 MOL     -0.668287
    170 O24       -14.3050    3.7770    0.8850 o         1 MOL     -0.668287
    171 H80       -10.7810    2.6950    0.4530 hn        1 MOL      0.127994
    172 H81       -10.5230    2.5590    3.3340 h1        1 MOL      0.014041
    173 H82       -11.2000    4.6430    1.3420 hc        1 MOL      0.161792
    174 H83       -11.0360    4.8860    3.1560 hc        1 MOL      0.161792
    175 H84       -12.8720    3.6020    3.6180 hc        1 MOL      0.043210
    176 H85       -12.5750    2.5400    2.1960 hc        1 MOL      0.043210
    177 N15        -8.2380    4.5050    1.7730 n         1 MOL     -0.469219
    178 C54        -8.6680    5.0530    0.4280 c3        1 MOL      0.042677
    179 H86        -7.9500    5.8030    0.0940 h1        1 MOL      0.042516
    180 H87        -8.7090    4.2420   -0.2990 h1        1 MOL      0.042516
    181 H88        -9.6540    5.5090    0.5190 h1        1 MOL      0.042516
    182 H89        -7.3170    4.8400    2.0270 hn        1 MOL      0.313551
    183 Ca1         3.1030   -3.4240    2.6650 Ca        1 MOL      1.787631
    184 O25         1.4020   -3.0450    4.7720 oh        1 MOL     -0.828997
    185 H90         0.5980   -3.3320    5.1940 ho        1 MOL      0.412677
    186 H91         1.3150   -2.0900    4.7070 ho        1 MOL      0.412677
    187 O26         0.9860   -2.0140    1.7580 oh        1 MOL     -0.828997
    188 H92         0.7100   -1.5830    0.9500 ho        1 MOL      0.412677
    189 H93         0.1690   -2.2930    2.1720 ho        1 MOL      0.412677
    190 O27         0.7680   -4.9510    2.7710 oh        1 MOL     -0.828997
    191 H94        -0.0270   -4.4660    2.5440 ho        1 MOL      0.412677
    192 H95         0.4530   -5.6720    3.3210 ho        1 MOL      0.412677
    193 O28         3.8200   -4.6730    4.9500 oh        1 MOL     -0.828997
    194 H96         3.5760   -5.5940    4.9490 ho        1 MOL      0.412677
    195 H97         4.5780   -4.6200    5.5300 ho        1 MOL      0.412677
    196 O29         3.9820   -1.6470    4.4640 oh        1 MOL     -0.828997
    197 H98         3.8270   -1.8200    5.3930 ho        1 MOL      0.412677
    198 H99         4.6750   -0.9880    4.4580 ho        1 MOL      0.412677
@<TRIPOS>BOND
     1    1    2 1   
     2    1    4 1   
     3    1    5 1   
     4    1    6 1   
     5    2    3 2   
     6    2    7 1   
     7    7    8 1   
     8    7   15 1   
     9    8    9 1   
    10    8   11 1   
    11    8   16 1   
    12    9   10 2   
    13    9   19 1   
    14   11   12 1   
    15   11   17 1   
    16   11   18 1   
    17   12   13 1   
    18   12   14 1   
    19   19   20 1   
    20   19   28 1   
    21   20   21 1   
    22   20   23 1   
    23   20   29 1   
    24   21   22 2   
    25   21   41 1   
    26   23   24 1   
    27   23   30 1   
    28   23   31 1   
    29   24   25 1   
    30   24   32 1   
    31   24   33 1   
    32   25   26 1   
    33   25   34 1   
    34   25   35 1   
    35   26   27 1   
    36   26   36 1   
    37   26   37 1   
    38   27   38 1   
    39   27   39 1   
    40   27   40 1   
    41   41   42 1   
    42   41   49 1   
    43   42   43 1   
    44   42   45 1   
    45   42   50 1   
    46   43   44 2   
    47   43   53 1   
    48   45   46 1   
    49   45   51 1   
    50   45   52 1   
    51   46   47 1   
    52   46   48 1   
    53   53   54 1   
    54   53   57 1   
    55   54   55 1   
    56   54   58 1   
    57   54   59 1   
    58   55   56 2   
    59   55   60 1   
    60   60   61 1   
    61   60   68 1   
    62   61   62 1   
    63   61   64 1   
    64   61   69 1   
    65   62   63 2   
    66   62   72 1   
    67   64   65 1   
    68   64   70 1   
    69   64   71 1   
    70   65   66 1   
    71   65   67 1   
    72   72   73 1   
    73   72   76 1   
    74   73   74 1   
    75   73   77 1   
    76   73   78 1   
    77   74   75 2   
    78   74   79 1   
    79   79   80 1   
    80   79   86 1   
    81   80   81 1   
    82   80   83 1   
    83   80   87 1   
    84   81   82 2   
    85   81   93 1   
    86   83   84 1   
    87   83   85 1   
    88   83   88 1   
    89   84   90 1   
    90   84   91 1   
    91   84   92 1   
    92   85   89 1   
    93   93   94 1   
    94   93  101 1   
    95   94   95 1   
    96   94   97 1   
    97   94  102 1   
    98   95   96 2   
    99   95  112 1   
   100   97   98 1   
   101   97   99 1   
   102   97  103 1   
   103   98  100 1   
   104   98  104 1   
   105   98  105 1   
   106   99  106 1   
   107   99  107 1   
   108   99  108 1   
   109  100  109 1   
   110  100  110 1   
   111  100  111 1   
   112  112  113 1   
   113  112  119 1   
   114  113  114 1   
   115  113  116 1   
   116  113  120 1   
   117  114  115 2   
   118  114  126 1   
   119  116  117 1   
   120  116  118 1   
   121  116  121 1   
   122  117  123 1   
   123  117  124 1   
   124  117  125 1   
   125  118  122 1   
   126  126  127 1   
   127  126  133 1   
   128  127  128 1   
   129  127  130 1   
   130  127  134 1   
   131  128  129 2   
   132  128  140 1   
   133  130  131 1   
   134  130  132 1   
   135  130  135 1   
   136  131  137 1   
   137  131  138 1   
   138  131  139 1   
   139  132  136 1   
   140  140  141 1   
   141  140  149 1   
   142  141  142 1   
   143  141  144 1   
   144  141  150 1   
   145  142  143 2   
   146  142  162 1   
   147  144  145 1   
   148  144  151 1   
   149  144  152 1   
   150  145  146 1   
   151  145  153 1   
   152  145  154 1   
   153  146  147 1   
   154  146  155 1   
   155  146  156 1   
   156  147  148 1   
   157  147  157 1   
   158  147  158 1   
   159  148  159 1   
   160  148  160 1   
   161  148  161 1   
   162  162  163 1   
   163  162  171 1   
   164  163  164 1   
   165  163  166 1   
   166  163  172 1   
   167  164  165 2   
   168  164  177 1   
   169  166  167 1   
   170  166  173 1   
   171  166  174 1   
   172  167  168 1   
   173  167  175 1   
   174  167  176 1   
   175  168  169 1   
   176  168  170 1   
   177  177  178 1   
   178  177  182 1   
   179  178  179 1   
   180  178  180 1   
   181  178  181 1   
   182  184  185 1   
   183  184  186 1   
   184  187  188 1   
   185  187  189 1   
   186  190  191 1   
   187  190  192 1   
   188  193  194 1   
   189  193  195 1   
   190  196  197 1   
   191  196  198 1   
@<TRIPOS>SUBSTRUCTURE
     1 MOL         1 TEMP              0 ****  ****    0 ROOT
