@<TRIPOS>MOLECULE
MOL
  178   175     1     0     0
SMALL
resp


@<TRIPOS>ATOM
      1 C1         10.4130   -6.1440   -2.6620 c3        1 MOL     -0.316985
      2 C2          9.2200   -5.1540   -2.7400 c         1 MOL      0.662182
      3 O1          8.3880   -5.2920   -3.6150 o         1 MOL     -0.578285
      4 H1         10.6980   -6.4490   -3.6690 hc        1 MOL      0.080784
      5 H2         11.2590   -5.6570   -2.1770 hc        1 MOL      0.080784
      6 H3         10.1200   -7.0220   -2.0860 hc        1 MOL      0.080784
      7 N1          9.0120   -4.2000   -1.7960 n         1 MOL     -0.641857
      8 C3          9.7000   -3.9850   -0.4800 c3        1 MOL      0.319972
      9 C4         10.4810   -2.6950   -0.3640 c         1 MOL      0.299385
     10 O2         11.1380   -2.3840    0.6780 o         1 MOL     -0.552122
     11 C5          8.7630   -4.0930    0.7420 c3        1 MOL     -0.316145
     12 C6          7.6860   -2.9750    0.8160 c         1 MOL      0.800963
     13 O3          7.4540   -2.2870   -0.1610 o         1 MOL     -0.777661
     14 O4          7.0900   -2.7540    1.8970 o         1 MOL     -0.777661
     15 H4          8.1390   -3.7360   -1.9670 hn        1 MOL      0.377444
     16 H5         10.3900   -4.8160   -0.2920 h1        1 MOL      0.029214
     17 H6          9.4490   -3.9520    1.5720 hc        1 MOL      0.076959
     18 H7          8.3190   -5.0880    0.8070 hc        1 MOL      0.076959
     19 N2         10.4090   -1.8100   -1.3530 n         1 MOL     -0.301471
     20 C7         11.2160   -0.5630   -1.4710 c3        1 MOL      0.301177
     21 C8         10.5530    0.7250   -0.8020 c         1 MOL      0.526411
     22 O5         11.1600    1.8080   -0.9350 o         1 MOL     -0.563585
     23 C9         11.6710   -0.4630   -2.9650 c3        1 MOL     -0.523993
     24 H8          9.9040   -2.1130   -2.1660 hn        1 MOL      0.208994
     25 H9         12.0700   -0.6830   -0.8020 h1        1 MOL      0.025303
     26 H10        12.5970   -0.9740   -3.1870 hc        1 MOL      0.139851
     27 H11        10.8250   -0.7480   -3.5880 hc        1 MOL      0.139851
     28 H12        11.7720    0.5880   -3.2400 hc        1 MOL      0.139851
     29 N3          9.4390    0.5000   -0.0480 n         1 MOL     -0.549425
     30 C10         8.7260    1.5770    0.5960 c3        1 MOL      0.161099
     31 C11         7.9390    1.0420    1.8260 c         1 MOL      0.423159
     32 O6          7.5050   -0.1120    1.8430 o         1 MOL     -0.459535
     33 C12         7.9120    2.3340   -0.5080 c3        1 MOL     -0.130936
     34 C13         6.9740    1.3050   -1.2110 c         1 MOL      0.676777
     35 O7          5.9870    0.9000   -0.6060 o         1 MOL     -0.692991
     36 O8          7.1770    0.9420   -2.3920 o         1 MOL     -0.692991
     37 H13         9.1420   -0.4430    0.1650 hn        1 MOL      0.390685
     38 H14         9.4170    2.2870    1.0480 h1        1 MOL      0.006618
     39 H15         8.5870    2.7670   -1.2460 hc        1 MOL      0.031338
     40 H16         7.4210    3.0880    0.1100 hc        1 MOL      0.031338
     41 N4          7.5790    1.9270    2.7590 n         1 MOL     -0.420124
     42 C14         6.5420    1.6350    3.7880 c3        1 MOL     -0.052463
     43 C15         5.0990    1.4580    3.2790 c         1 MOL      0.606768
     44 O9          4.8940    1.1790    2.1190 o         1 MOL     -0.503398
     45 H17         7.9970    2.8470    2.7150 hn        1 MOL      0.295376
     46 H18         6.5080    2.4140    4.5510 h1        1 MOL      0.081961
     47 H19         6.7500    0.7140    4.3340 h1        1 MOL      0.081961
     48 N5          4.1520    1.7010    4.2300 n         1 MOL     -0.747213
     49 C16         2.6910    1.6960    3.9320 c3        1 MOL      0.486145
     50 C17         2.2930    2.7800    2.8290 c         1 MOL      0.443480
     51 O10         3.0250    3.7220    2.5950 o         1 MOL     -0.483275
     52 C18         1.9100    1.7970    5.2200 c3        1 MOL     -0.440138
     53 C19         1.7470    0.4040    5.8840 c         1 MOL      0.631515
     54 N6          0.5380   -0.1050    6.0020 n         1 MOL     -0.752054
     55 O11         2.7060   -0.4070    6.1620 o         1 MOL     -0.573734
     56 H20         4.4120    1.5910    5.1970 hn        1 MOL      0.340062
     57 H21         2.5600    0.7180    3.4650 h1        1 MOL     -0.018689
     58 H22         0.8800    2.0910    5.0450 hc        1 MOL      0.121039
     59 H23         2.4070    2.4260    5.9700 hc        1 MOL      0.121039
     60 H24        -0.2570    0.4460    5.7270 hn        1 MOL      0.376008
     61 H25         0.3640   -1.0340    6.3600 hn        1 MOL      0.376008
     62 N7          1.1610    2.5630    2.2110 n         1 MOL     -0.443171
     63 C20         0.7630    3.4770    1.1480 c3        1 MOL     -0.046428
     64 C21         1.3930    3.2120   -0.1950 c         1 MOL      0.743380
     65 O12         2.1230    2.2640   -0.3230 o         1 MOL     -0.552541
     66 H26         0.6830    1.7470    2.5520 hn        1 MOL      0.242579
     67 H27         1.0370    4.5100    1.3860 h1        1 MOL      0.108461
     68 H28        -0.3240    3.4950    1.0800 h1        1 MOL      0.108461
     69 N8          1.2870    4.0320   -1.2340 n         1 MOL     -0.625594
     70 C22         0.3710    5.1980   -1.3040 c3        1 MOL      0.186729
     71 C23        -1.0860    4.6230   -1.2390 c         1 MOL     -0.032659
     72 O13        -1.9720    5.2560   -0.5950 o         1 MOL     -0.458679
     73 C24         0.6710    6.0390   -2.5410 c3        1 MOL      0.367910
     74 C25        -0.1040    7.3650   -2.4620 c3        1 MOL     -0.354299
     75 O14         1.9850    6.3440   -2.6480 oh        1 MOL     -0.596959
     76 H29         1.6300    3.7210   -2.1310 hn        1 MOL      0.323037
     77 H30         0.6440    5.7820   -0.4320 h1        1 MOL      0.109232
     78 H31         0.3110    5.4420   -3.3910 h1        1 MOL     -0.007240
     79 H32         2.1890    6.3740   -3.5770 ho        1 MOL      0.386164
     80 H33        -1.1560    7.0820   -2.3430 hc        1 MOL      0.090915
     81 H34         0.2960    7.9940   -1.6750 hc        1 MOL      0.090915
     82 H35        -0.0590    7.9500   -3.3780 hc        1 MOL      0.090915
     83 N9         -1.3740    3.4360   -1.7860 n         1 MOL     -0.327374
     84 C26        -2.8030    3.0070   -1.9250 c3        1 MOL     -0.124234
     85 C27        -2.8380    1.4970   -1.7330 c         1 MOL      0.534727
     86 O15        -2.1560    0.8120   -2.4710 o         1 MOL     -0.522807
     87 C28        -3.3710    3.3730   -3.3520 c3        1 MOL      0.230392
     88 C29        -3.3550    4.8720   -3.5490 c3        1 MOL      0.457602
     89 C30        -4.7060    2.7300   -3.6200 c3        1 MOL     -0.131034
     90 C31        -3.7150    5.4490   -4.8920 c3        1 MOL     -0.262952
     91 H36        -0.6290    2.9870   -2.3170 hn        1 MOL      0.302064
     92 H37        -3.3080    3.5660   -1.1370 h1        1 MOL      0.151951
     93 H38        -2.6380    3.0130   -4.0720 hc        1 MOL     -0.031209
     94 H39        -2.3710    5.2760   -3.3150 hc        1 MOL     -0.124384
     95 H40        -4.0870    5.2740   -2.8590 hc        1 MOL     -0.124384
     96 H41        -5.2640    3.1110   -4.4800 hc        1 MOL      0.024668
     97 H42        -4.5120    1.6600   -3.7030 hc        1 MOL      0.024668
     98 H43        -5.2460    2.8310   -2.6860 hc        1 MOL      0.024668
     99 H44        -3.0940    4.9950   -5.6680 hc        1 MOL      0.030249
    100 H45        -4.7790    5.3700   -5.1050 hc        1 MOL      0.030249
    101 H46        -3.4110    6.4980   -4.8490 hc        1 MOL      0.030249
    102 N10        -3.7220    0.8580   -0.9660 n         1 MOL     -0.465362
    103 C32        -4.6300    1.4470    0.0250 c3        1 MOL     -0.021427
    104 C33        -5.8100    0.4370    0.3570 c         1 MOL      0.607192
    105 O16        -5.5840   -0.7730    0.3730 o         1 MOL     -0.462259
    106 C34        -3.6880    1.7510    1.2640 c3        1 MOL     -0.203778
    107 C35        -2.6830    0.5970    1.5530 c         1 MOL      0.654965
    108 O17        -1.5040    0.7260    1.1200 o         1 MOL     -0.684930
    109 O18        -3.0040   -0.4090    2.1630 o         1 MOL     -0.684930
    110 H47        -3.5160   -0.1080   -0.7430 hn        1 MOL      0.369261
    111 H48        -5.0110    2.4070   -0.3390 h1        1 MOL      0.068166
    112 H49        -4.2060    2.0200    2.1780 hc        1 MOL      0.036803
    113 H50        -3.0700    2.5740    0.9110 hc        1 MOL      0.036803
    114 N11        -6.9470    0.9080    0.7560 n         1 MOL     -0.585483
    115 C36        -8.0550    0.0710    1.1710 c3        1 MOL      0.371558
    116 C37        -9.0370   -0.0710   -0.0110 c         1 MOL      0.489392
    117 O19        -9.3800    0.9210   -0.5580 o         1 MOL     -0.546260
    118 C38        -8.8110    0.7500    2.3130 c3        1 MOL     -0.124065
    119 C39       -10.2190    0.2360    2.6900 ca        1 MOL      0.017295
    120 C40       -11.4240    0.9180    2.3840 ca        1 MOL     -0.119945
    121 C41       -10.3200   -1.0480    3.3280 ca        1 MOL     -0.119945
    122 C42       -12.6520    0.4190    2.7590 ca        1 MOL     -0.099945
    123 C43       -11.5810   -1.4840    3.7800 ca        1 MOL     -0.099945
    124 C44       -12.7940   -0.7290    3.5120 ca        1 MOL     -0.179248
    125 H51        -6.9840    1.8950    0.9590 hn        1 MOL      0.292831
    126 H52        -7.8090   -0.9160    1.5690 h1        1 MOL     -0.004857
    127 H53        -8.9520    1.7820    2.0250 hc        1 MOL      0.040056
    128 H54        -8.1980    0.7530    3.2150 hc        1 MOL      0.040056
    129 H55       -11.4290    1.8140    1.7940 ha        1 MOL      0.120287
    130 H56        -9.4400   -1.5900    3.6450 ha        1 MOL      0.120287
    131 H57       -13.5240    1.0310    2.5290 ha        1 MOL      0.100733
    132 H58       -11.5730   -2.4560    4.2610 ha        1 MOL      0.100733
    133 H59       -13.7690   -1.0600    3.8420 ha        1 MOL      0.122886
    134 N12        -9.6580   -1.2500   -0.2970 n         1 MOL     -0.113238
    135 C45        -9.4390   -2.5430    0.3790 c3        1 MOL     -0.007353
    136 C46        -8.0490   -3.1980    0.1920 c         1 MOL      0.389065
    137 O20        -7.3680   -3.5180    1.1730 o         1 MOL     -0.503097
    138 C47       -10.5350   -3.3750   -0.1530 c3        1 MOL      0.041499
    139 C48       -11.6470   -2.4010   -0.2650 c3        1 MOL      0.130658
    140 C49       -10.9500   -1.3150   -1.0680 c3        1 MOL     -0.396852
    141 H60        -9.6650   -2.3060    1.4130 h1        1 MOL      0.042579
    142 H61       -10.2810   -3.7560   -1.1450 hc        1 MOL     -0.002535
    143 H62       -10.8780   -4.1280    0.5490 hc        1 MOL     -0.002535
    144 H63       -12.4890   -2.8460   -0.7860 hc        1 MOL     -0.007746
    145 H64       -11.8650   -2.0430    0.7400 hc        1 MOL     -0.007746
    146 H65       -10.7840   -1.6200   -2.1070 h1        1 MOL      0.156237
    147 H66       -11.4740   -0.3580   -1.0070 h1        1 MOL      0.156237
    148 N13        -7.5960   -3.2890   -1.1050 n         1 MOL     -0.487247
    149 C50        -6.2050   -3.6730   -1.4590 c3        1 MOL      0.261650
    150 C51        -6.2080   -5.2180   -1.6450 c         1 MOL      0.387469
    151 O21        -6.6980   -5.6970   -2.7110 o         1 MOL     -0.571914
    152 C52        -5.8300   -3.0710   -2.8440 c3        1 MOL     -0.027633
    153 C53        -5.8120   -1.4810   -2.9750 c3        1 MOL      0.114677
    154 C54        -5.7020   -1.0410   -4.4270 c         1 MOL      0.702392
    155 O22        -6.2240    0.0230   -4.8140 o         1 MOL     -0.736709
    156 O23        -4.9370   -1.6930   -5.1950 o         1 MOL     -0.736709
    157 H67        -8.1700   -2.8450   -1.8110 hn        1 MOL      0.339817
    158 H68        -5.5980   -3.3510   -0.6130 h1        1 MOL      0.061336
    159 H69        -6.5440   -3.3700   -3.6040 hc        1 MOL     -0.004301
    160 H70        -4.8400   -3.3960   -3.1470 hc        1 MOL     -0.004301
    161 H71        -4.9680   -1.1820   -2.3530 hc        1 MOL     -0.103741
    162 H72        -6.7470   -1.0710   -2.5830 hc        1 MOL     -0.103741
    163 N14        -5.7560   -6.1410   -0.7770 n         1 MOL     -0.325795
    164 C55        -5.0290   -5.8140    0.4930 c3        1 MOL     -0.173750
    165 H73        -5.6650   -5.1950    1.1260 h1        1 MOL      0.086172
    166 H74        -4.7810   -6.7360    1.0180 h1        1 MOL      0.086172
    167 H75        -4.1140   -5.2710    0.2590 h1        1 MOL      0.086172
    168 H76        -5.7590   -7.1280   -0.9840 hn        1 MOL      0.267534
    169 Ca1         5.1980   -1.1770    0.7800 Ca        1 MOL      1.743918
    170 O24         4.4930   -3.5120    1.3210 oh        1 MOL     -0.879492
    171 H77         4.9780   -4.1150    1.8810 ho        1 MOL      0.434693
    172 H78         3.8870   -4.0750    0.8310 ho        1 MOL      0.434693
    173 O25         4.3430   -2.4630   -1.4420 oh        1 MOL     -0.879492
    174 H79         4.7670   -2.6710   -2.2670 ho        1 MOL      0.434693
    175 H80         3.4030   -2.4920   -1.6400 ho        1 MOL      0.434693
    176 O26         2.5970   -0.5550    0.5710 oh        1 MOL     -0.879492
    177 H81         2.0370    0.0760    0.1220 ho        1 MOL      0.434693
    178 H82         2.0120   -0.9860    1.1950 ho        1 MOL      0.434693
@<TRIPOS>BOND
     1    1    2 1   
     2    1    4 1   
     3    1    5 1   
     4    1    6 1   
     5    2    3 2   
     6    2    7 1   
     7    7    8 1   
     8    7   15 1   
     9    8    9 1   
    10    8   11 1   
    11    8   16 1   
    12    9   10 2   
    13    9   19 1   
    14   11   12 1   
    15   11   17 1   
    16   11   18 1   
    17   12   13 1   
    18   12   14 1   
    19   19   20 1   
    20   19   24 1   
    21   20   21 1   
    22   20   23 1   
    23   20   25 1   
    24   21   22 2   
    25   21   29 1   
    26   23   26 1   
    27   23   27 1   
    28   23   28 1   
    29   29   30 1   
    30   29   37 1   
    31   30   31 1   
    32   30   33 1   
    33   30   38 1   
    34   31   32 2   
    35   31   41 1   
    36   33   34 1   
    37   33   39 1   
    38   33   40 1   
    39   34   35 1   
    40   34   36 1   
    41   41   42 1   
    42   41   45 1   
    43   42   43 1   
    44   42   46 1   
    45   42   47 1   
    46   43   44 2   
    47   43   48 1   
    48   48   49 1   
    49   48   56 1   
    50   49   50 1   
    51   49   52 1   
    52   49   57 1   
    53   50   51 2   
    54   50   62 1   
    55   52   53 1   
    56   52   58 1   
    57   52   59 1   
    58   53   54 1   
    59   53   55 2   
    60   54   60 1   
    61   54   61 1   
    62   62   63 1   
    63   62   66 1   
    64   63   64 1   
    65   63   67 1   
    66   63   68 1   
    67   64   65 2   
    68   64   69 1   
    69   69   70 1   
    70   69   76 1   
    71   70   71 1   
    72   70   73 1   
    73   70   77 1   
    74   71   72 2   
    75   71   83 1   
    76   73   74 1   
    77   73   75 1   
    78   73   78 1   
    79   74   80 1   
    80   74   81 1   
    81   74   82 1   
    82   75   79 1   
    83   83   84 1   
    84   83   91 1   
    85   84   85 1   
    86   84   87 1   
    87   84   92 1   
    88   85   86 2   
    89   85  102 1   
    90   87   88 1   
    91   87   89 1   
    92   87   93 1   
    93   88   90 1   
    94   88   94 1   
    95   88   95 1   
    96   89   96 1   
    97   89   97 1   
    98   89   98 1   
    99   90   99 1   
   100   90  100 1   
   101   90  101 1   
   102  102  103 1   
   103  102  110 1   
   104  103  104 1   
   105  103  106 1   
   106  103  111 1   
   107  104  105 2   
   108  104  114 1   
   109  106  107 1   
   110  106  112 1   
   111  106  113 1   
   112  107  108 1   
   113  107  109 1   
   114  114  115 1   
   115  114  125 1   
   116  115  116 1   
   117  115  118 1   
   118  115  126 1   
   119  116  117 2   
   120  116  134 1   
   121  118  119 1   
   122  118  127 1   
   123  118  128 1   
   124  119  120 ar  
   125  119  121 ar  
   126  120  122 ar  
   127  120  129 1   
   128  121  123 ar  
   129  121  130 1   
   130  122  124 ar  
   131  122  131 1   
   132  123  124 ar  
   133  123  132 1   
   134  124  133 1   
   135  134  135 1   
   136  134  140 1   
   137  135  136 1   
   138  135  138 1   
   139  135  141 1   
   140  136  137 2   
   141  136  148 1   
   142  138  139 1   
   143  138  142 1   
   144  138  143 1   
   145  139  140 1   
   146  139  144 1   
   147  139  145 1   
   148  140  146 1   
   149  140  147 1   
   150  148  149 1   
   151  148  157 1   
   152  149  150 1   
   153  149  152 1   
   154  149  158 1   
   155  150  151 2   
   156  150  163 1   
   157  152  153 1   
   158  152  159 1   
   159  152  160 1   
   160  153  154 1   
   161  153  161 1   
   162  153  162 1   
   163  154  155 1   
   164  154  156 1   
   165  163  164 1   
   166  163  168 1   
   167  164  165 1   
   168  164  166 1   
   169  164  167 1   
   170  170  171 1   
   171  170  172 1   
   172  173  174 1   
   173  173  175 1   
   174  176  177 1   
   175  176  178 1   
@<TRIPOS>SUBSTRUCTURE
     1 MOL         1 TEMP              0 ****  ****    0 ROOT
