@<TRIPOS>MOLECULE
MOL
  178   175     1     0     0
SMALL
resp


@<TRIPOS>ATOM
      1 C1          2.4470   -1.5500    4.4060 c3        1 MOL     -0.337187
      2 C2          3.7130   -0.8830    3.9130 c         1 MOL      0.654434
      3 O1          3.7160    0.1890    3.3280 o         1 MOL     -0.570936
      4 H1          1.7930   -0.8010    4.8530 hc        1 MOL      0.080578
      5 H2          1.9350   -2.0240    3.5690 hc        1 MOL      0.080578
      6 H3          2.6990   -2.3040    5.1520 hc        1 MOL      0.080578
      7 N1          4.8480   -1.5230    4.1930 n         1 MOL     -0.478277
      8 C3          6.1750   -0.9220    3.8620 c3        1 MOL      0.014087
      9 C4          6.5340   -1.0120    2.4030 c         1 MOL      0.645999
     10 O2          7.0930   -0.0670    1.8560 o         1 MOL     -0.623891
     11 C5          7.2850   -1.5920    4.7640 c3        1 MOL     -0.150914
     12 C6          7.4380   -3.0500    4.3630 c         1 MOL      0.669899
     13 O3          6.7170   -3.9740    4.8400 o         1 MOL     -0.705087
     14 O4          8.3270   -3.2480    3.4710 o         1 MOL     -0.705087
     15 H4          4.7560   -2.3720    4.7350 hn        1 MOL      0.261877
     16 H5          6.1230    0.1430    4.0970 h1        1 MOL      0.063794
     17 H6          7.0700   -1.5310    5.8330 hc        1 MOL      0.019563
     18 H7          8.2480   -1.0810    4.6930 hc        1 MOL      0.019563
     19 N2          6.0550   -2.1040    1.7600 n         1 MOL     -0.471305
     20 C7          6.2060   -2.4360    0.3630 c3        1 MOL      0.077966
     21 C8          5.5460   -1.4790   -0.6770 c         1 MOL      0.553339
     22 O5          4.2860   -1.5140   -0.9620 o         1 MOL     -0.664430
     23 C9          7.6720   -2.9190    0.0250 c3        1 MOL     -0.329325
     24 H8          5.6180   -2.8190    2.3200 hn        1 MOL      0.309628
     25 H9          5.5620   -3.2930    0.1720 h1        1 MOL      0.096879
     26 H10         8.4040   -2.1850    0.3450 hc        1 MOL      0.106738
     27 H11         7.8310   -3.7740    0.6860 hc        1 MOL      0.106738
     28 H12         7.7560   -3.1670   -1.0300 hc        1 MOL      0.106738
     29 N3          6.3700   -0.6560   -1.1590 n         1 MOL     -0.318752
     30 C10         6.0090    0.3410   -2.1730 c3        1 MOL      0.015138
     31 C11         5.9100    1.7800   -1.6790 c         1 MOL      0.648175
     32 O6          6.2000    2.6960   -2.4510 o         1 MOL     -0.561244
     33 C12         6.9330    0.2200   -3.3610 c3        1 MOL     -0.465249
     34 C13         7.3680   -1.2330   -3.6510 c         1 MOL      0.880963
     35 O7          8.5290   -1.5510   -3.4920 o         1 MOL     -0.744109
     36 O8          6.6100   -2.0380   -4.2430 o         1 MOL     -0.744109
     37 H13         7.3280   -0.7640   -0.8540 hn        1 MOL      0.276985
     38 H14         5.0440    0.0110   -2.5590 h1        1 MOL      0.033375
     39 H15         7.8040    0.7040   -2.9330 hc        1 MOL      0.102121
     40 H16         6.5050    0.5950   -4.2900 hc        1 MOL      0.102121
     41 N4          5.5760    2.0210   -0.4230 n         1 MOL     -0.363747
     42 C14         5.3580    3.3300    0.0400 c3        1 MOL     -0.068332
     43 C15         4.2360    4.0650   -0.6850 c         1 MOL      0.573868
     44 O9          4.3400    5.2700   -1.0900 o         1 MOL     -0.582199
     45 H17         5.4150    1.2460    0.2070 hn        1 MOL      0.320631
     46 H18         6.1840    4.0280   -0.0940 h1        1 MOL      0.065477
     47 H19         5.0260    3.2390    1.0760 h1        1 MOL      0.065477
     48 N5          3.0900    3.4210   -0.7900 n         1 MOL     -0.416393
     49 C16         2.0530    3.8080   -1.7570 c3        1 MOL     -0.088326
     50 C17         1.2700    4.8480   -1.0110 c         1 MOL      0.624481
     51 O10         1.0560    4.6810    0.1960 o         1 MOL     -0.539106
     52 C18         1.2340    2.5870   -2.2520 c3        1 MOL     -0.045884
     53 C19         2.0890    1.6150   -2.9590 c         1 MOL      0.447499
     54 N6          2.6510    2.0150   -4.0990 n         1 MOL     -0.521800
     55 O11         2.2870    0.4240   -2.6900 o         1 MOL     -0.571278
     56 H20         2.9640    2.5440   -0.3020 hn        1 MOL      0.332170
     57 H21         2.5180    4.2880   -2.6300 h1        1 MOL      0.060146
     58 H22         0.5070    2.9840   -2.9510 hc        1 MOL      0.062582
     59 H23         0.6800    2.0750   -1.4600 hc        1 MOL      0.062582
     60 H24         2.4980    2.9390   -4.4770 hn        1 MOL      0.274185
     61 H25         2.9220    1.2690   -4.7110 hn        1 MOL      0.274185
     62 N7          0.7320    5.7360   -1.8530 n         1 MOL     -0.399169
     63 C20        -0.0960    6.9170   -1.5110 c3        1 MOL     -0.343331
     64 C21        -1.6460    6.7090   -1.3410 c         1 MOL      0.623463
     65 O12        -2.3710    6.0470   -2.0040 o         1 MOL     -0.469208
     66 H26         1.0060    5.5650   -2.8080 hn        1 MOL      0.306110
     67 H27         0.0610    7.6270   -2.3300 h1        1 MOL      0.157218
     68 H28         0.4200    7.2880   -0.6270 h1        1 MOL      0.157218
     69 N8         -2.1900    7.4020   -0.2930 n         1 MOL     -0.486359
     70 C22        -3.6430    7.3370    0.0480 c3        1 MOL     -0.126922
     71 C23        -4.0730    5.9980    0.6000 c         1 MOL      0.398493
     72 O13        -5.2270    5.6960    0.3380 o         1 MOL     -0.572135
     73 C24        -4.0000    8.3810    1.1420 c3        1 MOL      0.408448
     74 C25        -3.3920    8.1470    2.5690 c3        1 MOL     -0.338058
     75 O14        -3.6040    9.6530    0.6630 oh        1 MOL     -0.619675
     76 H29        -1.6250    8.0140    0.2800 hn        1 MOL      0.248915
     77 H30        -4.2030    7.4130   -0.8830 h1        1 MOL      0.154150
     78 H31        -5.0800    8.3310    1.2250 h1        1 MOL      0.037659
     79 H32        -2.6800    9.7440    0.8870 ho        1 MOL      0.377806
     80 H33        -2.3620    7.8000    2.4750 hc        1 MOL      0.079761
     81 H34        -3.4810    9.1050    3.0720 hc        1 MOL      0.079761
     82 H35        -3.9200    7.4470    3.2120 hc        1 MOL      0.079761
     83 N9         -3.2750    5.1840    1.2160 n         1 MOL      0.007665
     84 C26        -3.4160    3.7730    1.5830 c3        1 MOL     -0.147493
     85 C27        -2.5850    2.7950    0.6810 c         1 MOL      0.579195
     86 O15        -1.7780    3.2470   -0.1390 o         1 MOL     -0.480957
     87 C28        -3.0910    3.5320    3.0750 c3        1 MOL      0.077185
     88 C29        -1.5980    3.8450    3.4100 c3        1 MOL     -0.035191
     89 C30        -3.9850    4.4330    3.9090 c3        1 MOL     -0.237604
     90 C31        -0.9710    3.1240    4.6100 c3        1 MOL     -0.285742
     91 H36        -2.3480    5.5720    1.2850 hn        1 MOL      0.124949
     92 H37        -4.4590    3.5150    1.4550 h1        1 MOL      0.072284
     93 H38        -3.2900    2.4980    3.3630 hc        1 MOL      0.028708
     94 H39        -1.5090    4.9240    3.5180 hc        1 MOL      0.066974
     95 H40        -1.0160    3.5070    2.5470 hc        1 MOL      0.066974
     96 H41        -3.8240    4.1560    4.9490 hc        1 MOL      0.051541
     97 H42        -3.8720    5.5130    3.8580 hc        1 MOL      0.051541
     98 H43        -5.0620    4.2330    3.8090 hc        1 MOL      0.051541
     99 H44         0.1130    3.1750    4.5700 hc        1 MOL      0.079065
    100 H45        -1.4120    3.5060    5.5220 hc        1 MOL      0.079065
    101 H46        -1.2040    2.0590    4.5720 hc        1 MOL      0.079065
    102 N10        -2.9020    1.5090    0.8070 n         1 MOL     -0.458456
    103 C32        -2.2620    0.4700    0.0150 c3        1 MOL     -0.015933
    104 C33        -3.1940   -0.7460   -0.2580 c         1 MOL      0.574112
    105 O16        -2.8300   -1.9150   -0.5490 o         1 MOL     -0.524708
    106 C34        -0.8890    0.0130    0.5460 c3        1 MOL     -0.157950
    107 C35         0.1250   -0.5340   -0.4460 c         1 MOL      0.803348
    108 O17         1.2860   -0.7560   -0.0610 o         1 MOL     -0.765379
    109 O18        -0.1980   -0.7430   -1.6790 o         1 MOL     -0.765379
    110 H47        -3.6470    1.2080    1.4260 hn        1 MOL      0.255314
    111 H48        -2.0410    0.9180   -0.9540 h1        1 MOL      0.057703
    112 H49        -0.9470   -0.7300    1.3360 hc        1 MOL      0.077721
    113 H50        -0.4830    0.8560    1.1140 hc        1 MOL      0.077721
    114 N11        -4.4600   -0.4250   -0.3500 n         1 MOL     -0.356586
    115 C36        -5.5510   -1.2160   -0.8460 c3        1 MOL      0.131862
    116 C37        -5.6830   -2.5300   -0.1370 c         1 MOL      0.248024
    117 O19        -5.8130   -2.4950    1.0660 o         1 MOL     -0.445795
    118 C38        -6.9070   -0.5250   -0.6570 c3        1 MOL     -0.348971
    119 C39        -8.0970   -1.2780   -1.2210 ca        1 MOL      0.105150
    120 C40        -8.3800   -1.2900   -2.6270 ca        1 MOL     -0.142002
    121 C41        -8.9250   -2.0220   -0.3160 ca        1 MOL     -0.142002
    122 C42        -9.4140   -2.0620   -3.1940 ca        1 MOL     -0.164248
    123 C43        -9.9660   -2.8470   -0.8920 ca        1 MOL     -0.164248
    124 C44       -10.1460   -2.8590   -2.2830 ca        1 MOL     -0.061120
    125 H51        -4.6040    0.5710   -0.2100 hn        1 MOL      0.233312
    126 H52        -5.4000   -1.4880   -1.8900 h1        1 MOL      0.040461
    127 H53        -6.7720    0.4370   -1.1380 hc        1 MOL      0.132626
    128 H54        -7.0880   -0.3680    0.4060 hc        1 MOL      0.132626
    129 H55        -7.7070   -0.8240   -3.3280 ha        1 MOL      0.136674
    130 H56        -8.7600   -2.1560    0.7380 ha        1 MOL      0.136674
    131 H57        -9.6150   -2.1130   -4.2560 ha        1 MOL      0.132800
    132 H58       -10.5460   -3.3820   -0.1640 ha        1 MOL      0.132800
    133 H59       -10.9250   -3.4980   -2.6860 ha        1 MOL      0.080877
    134 N12        -5.7600   -3.7300   -0.8050 n         1 MOL     -0.002445
    135 C45        -5.8140   -5.0730   -0.1290 c3        1 MOL     -0.053081
    136 C46        -4.6620   -5.4740    0.8540 c         1 MOL      0.268169
    137 O20        -4.8300   -6.4420    1.5850 o         1 MOL     -0.511318
    138 C47        -5.7120   -6.1040   -1.3220 c3        1 MOL      0.006627
    139 C48        -6.4450   -5.3370   -2.4520 c3        1 MOL     -0.121209
    140 C49        -5.8640   -3.9370   -2.3280 c3        1 MOL      0.073841
    141 H60        -6.7370   -5.1500    0.4450 h1        1 MOL      0.091983
    142 H61        -4.6680   -6.2690   -1.5900 hc        1 MOL      0.039726
    143 H62        -6.1760   -7.0700   -1.1010 hc        1 MOL      0.039726
    144 H63        -6.2030   -5.7540   -3.4360 hc        1 MOL      0.037549
    145 H64        -7.5260   -5.2910   -2.3340 hc        1 MOL      0.037549
    146 H65        -4.8790   -3.8070   -2.7710 h1        1 MOL      0.018920
    147 H66        -6.5000   -3.1700   -2.7790 h1        1 MOL      0.018920
    148 N13        -3.5740   -4.7510    0.8880 n         1 MOL     -0.000595
    149 C50        -2.4980   -4.8550    1.8310 c3        1 MOL     -0.076888
    150 C51        -2.8160   -4.3330    3.2640 c         1 MOL      0.383951
    151 O21        -2.1950   -4.6750    4.2890 o         1 MOL     -0.517699
    152 C52        -1.2120   -4.2990    1.2300 c3        1 MOL      0.015280
    153 C53        -0.7370   -5.0480   -0.0370 c3        1 MOL     -0.284684
    154 C54         0.2770   -4.1780   -0.7870 c         1 MOL      0.727705
    155 O22         1.3410   -3.8630   -0.2200 o         1 MOL     -0.707023
    156 O23         0.0450   -3.8800   -1.9610 o         1 MOL     -0.707023
    157 H67        -3.4380   -4.0020    0.2240 hn        1 MOL      0.152673
    158 H68        -2.3250   -5.9040    2.0530 h1        1 MOL      0.066171
    159 H69        -0.4130   -4.4390    1.9570 hc        1 MOL      0.061033
    160 H70        -1.3580   -3.2380    1.0370 hc        1 MOL      0.061033
    161 H71        -1.5440   -5.4250   -0.6710 hc        1 MOL      0.052937
    162 H72        -0.1550   -5.9170    0.2710 hc        1 MOL      0.052937
    163 N14        -3.7380   -3.3620    3.2380 n         1 MOL     -0.091556
    164 C55        -4.0550   -2.4550    4.3760 c3        1 MOL     -0.327501
    165 H73        -4.6340   -2.9980    5.1230 h1        1 MOL      0.118821
    166 H74        -3.1290   -2.0960    4.8250 h1        1 MOL      0.118821
    167 H75        -4.6350   -1.6060    4.0130 h1        1 MOL      0.118821
    168 H76        -4.2350   -3.1600    2.3920 hn        1 MOL      0.110870
    169 Ca1         1.9400   -2.1060   -2.3010 Ca        1 MOL      1.820468
    170 O24         4.0660   -1.8140   -4.1010 oh        1 MOL     -0.909176
    171 H77         3.9760   -1.1190   -4.7400 ho        1 MOL      0.428359
    172 H78         4.9830   -2.0770   -4.1480 ho        1 MOL      0.428359
    173 O25         3.2550   -4.3340   -2.3650 oh        1 MOL     -0.909176
    174 H79         3.5650   -4.9510   -1.7110 ho        1 MOL      0.428359
    175 H80         3.6740   -4.6080   -3.1830 ho        1 MOL      0.428359
    176 O26         0.7830   -2.4140   -4.5280 oh        1 MOL     -0.909176
    177 H81         0.0950   -2.9810   -4.8660 ho        1 MOL      0.428359
    178 H82         0.9150   -1.7530   -5.2060 ho        1 MOL      0.428359
@<TRIPOS>BOND
     1    1    2 1   
     2    1    4 1   
     3    1    5 1   
     4    1    6 1   
     5    2    3 2   
     6    2    7 1   
     7    7    8 1   
     8    7   15 1   
     9    8    9 1   
    10    8   11 1   
    11    8   16 1   
    12    9   10 2   
    13    9   19 1   
    14   11   12 1   
    15   11   17 1   
    16   11   18 1   
    17   12   13 1   
    18   12   14 1   
    19   19   20 1   
    20   19   24 1   
    21   20   21 1   
    22   20   23 1   
    23   20   25 1   
    24   21   22 2   
    25   21   29 1   
    26   23   26 1   
    27   23   27 1   
    28   23   28 1   
    29   29   30 1   
    30   29   37 1   
    31   30   31 1   
    32   30   33 1   
    33   30   38 1   
    34   31   32 2   
    35   31   41 1   
    36   33   34 1   
    37   33   39 1   
    38   33   40 1   
    39   34   35 1   
    40   34   36 1   
    41   41   42 1   
    42   41   45 1   
    43   42   43 1   
    44   42   46 1   
    45   42   47 1   
    46   43   44 2   
    47   43   48 1   
    48   48   49 1   
    49   48   56 1   
    50   49   50 1   
    51   49   52 1   
    52   49   57 1   
    53   50   51 2   
    54   50   62 1   
    55   52   53 1   
    56   52   58 1   
    57   52   59 1   
    58   53   54 1   
    59   53   55 2   
    60   54   60 1   
    61   54   61 1   
    62   62   63 1   
    63   62   66 1   
    64   63   64 1   
    65   63   67 1   
    66   63   68 1   
    67   64   65 2   
    68   64   69 1   
    69   69   70 1   
    70   69   76 1   
    71   70   71 1   
    72   70   73 1   
    73   70   77 1   
    74   71   72 2   
    75   71   83 1   
    76   73   74 1   
    77   73   75 1   
    78   73   78 1   
    79   74   80 1   
    80   74   81 1   
    81   74   82 1   
    82   75   79 1   
    83   83   84 1   
    84   83   91 1   
    85   84   85 1   
    86   84   87 1   
    87   84   92 1   
    88   85   86 2   
    89   85  102 1   
    90   87   88 1   
    91   87   89 1   
    92   87   93 1   
    93   88   90 1   
    94   88   94 1   
    95   88   95 1   
    96   89   96 1   
    97   89   97 1   
    98   89   98 1   
    99   90   99 1   
   100   90  100 1   
   101   90  101 1   
   102  102  103 1   
   103  102  110 1   
   104  103  104 1   
   105  103  106 1   
   106  103  111 1   
   107  104  105 2   
   108  104  114 1   
   109  106  107 1   
   110  106  112 1   
   111  106  113 1   
   112  107  108 1   
   113  107  109 1   
   114  114  115 1   
   115  114  125 1   
   116  115  116 1   
   117  115  118 1   
   118  115  126 1   
   119  116  117 2   
   120  116  134 1   
   121  118  119 1   
   122  118  127 1   
   123  118  128 1   
   124  119  120 ar  
   125  119  121 ar  
   126  120  122 ar  
   127  120  129 1   
   128  121  123 ar  
   129  121  130 1   
   130  122  124 ar  
   131  122  131 1   
   132  123  124 ar  
   133  123  132 1   
   134  124  133 1   
   135  134  135 1   
   136  134  140 1   
   137  135  136 1   
   138  135  138 1   
   139  135  141 1   
   140  136  137 2   
   141  136  148 1   
   142  138  139 1   
   143  138  142 1   
   144  138  143 1   
   145  139  140 1   
   146  139  144 1   
   147  139  145 1   
   148  140  146 1   
   149  140  147 1   
   150  148  149 1   
   151  148  157 1   
   152  149  150 1   
   153  149  152 1   
   154  149  158 1   
   155  150  151 2   
   156  150  163 1   
   157  152  153 1   
   158  152  159 1   
   159  152  160 1   
   160  153  154 1   
   161  153  161 1   
   162  153  162 1   
   163  154  155 1   
   164  154  156 1   
   165  163  164 1   
   166  163  168 1   
   167  164  165 1   
   168  164  166 1   
   169  164  167 1   
   170  170  171 1   
   171  170  172 1   
   172  173  174 1   
   173  173  175 1   
   174  176  177 1   
   175  176  178 1   
@<TRIPOS>SUBSTRUCTURE
     1 MOL         1 TEMP              0 ****  ****    0 ROOT
