@<TRIPOS>MOLECULE
MOL
  175   173     1     0     0
SMALL
resp


@<TRIPOS>ATOM
      1 C1         -6.3410    8.0340    1.7730 c3        1 MOL     -0.376045
      2 C2         -7.3600    7.2390    1.0220 c         1 MOL      0.695113
      3 O1         -7.7640    7.6130   -0.0850 o         1 MOL     -0.590905
      4 H1         -6.8340    8.6030    2.5610 hc        1 MOL      0.089393
      5 H2         -5.6080    7.3600    2.2150 hc        1 MOL      0.089393
      6 H3         -5.8400    8.7200    1.0900 hc        1 MOL      0.089393
      7 N1         -7.8690    6.1050    1.5100 n         1 MOL     -0.507635
      8 C3         -8.7950    5.2270    0.7210 c3        1 MOL      0.063684
      9 C4         -7.8880    4.3050   -0.2800 c         1 MOL      0.484790
     10 O2         -8.3830    3.8630   -1.3470 o         1 MOL     -0.519664
     11 C5         -9.4930    4.3670    1.7340 c3        1 MOL     -0.230522
     12 C6        -10.6590    3.5460    1.1580 c         1 MOL      0.723606
     13 O3        -10.5330    2.2970    0.9980 o         1 MOL     -0.729928
     14 O4        -11.7370    4.1570    0.9560 o         1 MOL     -0.729928
     15 H4         -7.5150    5.7940    2.4020 hn        1 MOL      0.276439
     16 H5         -9.5640    5.8070    0.2130 h1        1 MOL      0.121289
     17 H6         -9.9330    4.9710    2.5320 hc        1 MOL      0.027417
     18 H7         -8.8190    3.7160    2.3010 hc        1 MOL      0.027417
     19 N2         -6.5420    4.1970   -0.0590 n         1 MOL     -0.468553
     20 C7         -5.5600    3.4840   -0.8780 c3        1 MOL      0.341284
     21 C8         -4.6980    2.6850    0.0650 c         1 MOL      0.446481
     22 O5         -4.2400    3.1510    1.1070 o         1 MOL     -0.519128
     23 C9         -4.8350    4.5880   -1.6300 c3        1 MOL     -0.390454
     24 H8         -6.1860    4.6030    0.7930 hn        1 MOL      0.250025
     25 H9         -6.0550    2.8540   -1.6090 h1        1 MOL      0.039421
     26 H10        -5.5700    5.2170   -2.1380 hc        1 MOL      0.101805
     27 H11        -4.4740    5.3180   -0.9080 hc        1 MOL      0.101805
     28 H12        -4.0340    4.1930   -2.2650 hc        1 MOL      0.101805
     29 N3         -4.5730    1.3320   -0.2460 n         1 MOL     -0.382209
     30 C10        -5.1890    0.4700   -1.2710 c3        1 MOL      0.005844
     31 C11        -5.5690   -0.9480   -0.7770 c         1 MOL      0.454061
     32 O6         -5.0930   -1.3540    0.2830 o         1 MOL     -0.515731
     33 C12        -4.3260    0.4270   -2.5540 c3        1 MOL     -0.166749
     34 C13        -2.8590   -0.0580   -2.3300 c         1 MOL      0.744570
     35 O7         -2.0210    0.5300   -1.6250 o         1 MOL     -0.770863
     36 O8         -2.5280   -1.2040   -2.6830 o         1 MOL     -0.770863
     37 H13        -3.9750    0.8190    0.3890 hn        1 MOL      0.258916
     38 H14        -6.0470    1.0260   -1.6420 h1        1 MOL      0.055078
     39 H15        -4.2050    1.4170   -3.0000 hc        1 MOL      0.036854
     40 H16        -4.8980   -0.2120   -3.2180 hc        1 MOL      0.036854
     41 N4         -6.5420   -1.5730   -1.4140 n         1 MOL     -0.290875
     42 C14        -7.1050   -2.8750   -1.0580 c3        1 MOL     -0.009650
     43 C15        -6.8820   -3.9890   -2.0870 c         1 MOL      0.539549
     44 O9         -7.7090   -4.1400   -2.9910 o         1 MOL     -0.535973
     45 H17        -7.0090   -1.1010   -2.1760 hn        1 MOL      0.293914
     46 H18        -8.1820   -2.7230   -0.9680 h1        1 MOL      0.071679
     47 H19        -6.7550   -3.1800   -0.0760 h1        1 MOL      0.071679
     48 N5         -5.7640   -4.7790   -1.9510 n         1 MOL     -0.544172
     49 C16        -4.4720   -4.6280   -1.2550 c3        1 MOL      0.081276
     50 C17        -4.4050   -5.2490    0.1810 c         1 MOL      0.539863
     51 O10        -4.7180   -6.4070    0.3920 o         1 MOL     -0.553230
     52 C18        -3.3090   -5.0210   -2.2290 c3        1 MOL     -0.021909
     53 C19        -1.9930   -4.4240   -1.7820 c         1 MOL      0.450744
     54 N6         -0.9500   -4.5350   -2.6230 n         1 MOL     -0.703431
     55 O11        -1.8400   -3.7450   -0.7390 o         1 MOL     -0.430508
     56 H20        -5.7460   -5.5280   -2.6360 hn        1 MOL      0.292020
     57 H21        -4.5010   -3.5370   -1.1410 h1        1 MOL      0.054280
     58 H22        -3.5090   -4.7580   -3.2610 hc        1 MOL      0.056559
     59 H23        -3.2140   -6.1010   -2.1950 hc        1 MOL      0.056559
     60 H24        -1.0210   -5.1150   -3.4420 hn        1 MOL      0.340410
     61 H25        -0.0250   -4.2000   -2.3960 hn        1 MOL      0.340410
     62 N7         -3.8390   -4.5820    1.1690 n         1 MOL     -0.363190
     63 C20        -3.4770   -5.0910    2.5260 c3        1 MOL     -0.003139
     64 C21        -2.0220   -5.5090    2.6940 c         1 MOL      0.563347
     65 O12        -1.8710   -6.3190    3.6150 o         1 MOL     -0.587564
     66 H26        -3.4660   -3.6650    0.9450 hn        1 MOL      0.228228
     67 H27        -4.0870   -5.9550    2.7840 h1        1 MOL      0.065985
     68 H28        -3.5970   -4.3350    3.3020 h1        1 MOL      0.065985
     69 N8         -1.0050   -5.1470    1.8270 n         1 MOL     -0.290549
     70 C22         0.4310   -5.3700    2.0750 c3        1 MOL     -0.089086
     71 C23         1.1460   -4.0730    1.7830 c         1 MOL      0.551219
     72 O13         0.6240   -3.1740    1.0690 o         1 MOL     -0.628846
     73 C24         1.0150   -6.4020    1.1770 c3        1 MOL      0.442661
     74 C25         0.5290   -7.8060    1.7310 c3        1 MOL     -0.502703
     75 O14         0.6830   -6.2430   -0.1780 oh        1 MOL     -0.670819
     76 H29        -1.3370   -4.5690    1.0670 hn        1 MOL      0.208206
     77 H30         0.5580   -5.5850    3.1440 h1        1 MOL      0.065182
     78 H31         2.1010   -6.3580    1.2090 h1        1 MOL     -0.018162
     79 H32         1.3680   -5.7130   -0.5740 ho        1 MOL      0.495849
     80 H33         0.9460   -7.9230    2.7220 hc        1 MOL      0.125637
     81 H34        -0.5540   -7.8610    1.6640 hc        1 MOL      0.125637
     82 H35         0.9880   -8.5910    1.1190 hc        1 MOL      0.125637
     83 N9          2.3150   -3.9410    2.3890 n         1 MOL     -0.482947
     84 C26         3.2580   -2.8020    2.2570 c3        1 MOL      0.168230
     85 C27         4.2300   -3.0000    1.0550 c         1 MOL      0.449006
     86 O15         5.0370   -3.9110    1.1560 o         1 MOL     -0.556410
     87 C28         4.0870   -2.4350    3.5640 c3        1 MOL      0.287966
     88 C29         4.9320   -1.1390    3.3230 c3        1 MOL     -0.027823
     89 C30         3.1580   -2.5000    4.8010 c3        1 MOL     -0.403524
     90 C31         4.0460    0.0870    2.9870 c3        1 MOL     -0.098191
     91 H36         2.6780   -4.7680    2.8400 hn        1 MOL      0.255347
     92 H37         2.5730   -1.9680    2.1060 h1        1 MOL      0.077051
     93 H38         4.8860   -3.1720    3.6820 hc        1 MOL     -0.053769
     94 H39         5.5380   -1.2880    2.4330 hc        1 MOL     -0.016455
     95 H40         5.5630   -1.0020    4.2050 hc        1 MOL     -0.016455
     96 H41         3.6200   -1.9730    5.6370 hc        1 MOL      0.092891
     97 H42         2.1930   -2.0570    4.6120 hc        1 MOL      0.092891
     98 H43         3.1640   -3.5160    5.2210 hc        1 MOL      0.092891
     99 H44         4.5060    1.0520    3.1680 hc        1 MOL      0.016114
    100 H45         3.9260    0.1150    1.9110 hc        1 MOL      0.016114
    101 H46         3.0830   -0.0010    3.5010 hc        1 MOL      0.016114
    102 N10         4.1080   -2.1760    0.0130 n         1 MOL     -0.310076
    103 C32         4.6430   -2.4670   -1.2860 c3        1 MOL      0.203082
    104 C33         5.6740   -1.3970   -1.7490 c         1 MOL      0.542103
    105 O16         6.1970   -1.6000   -2.8590 o         1 MOL     -0.571597
    106 C34         3.5200   -2.8110   -2.3480 c3        1 MOL     -0.365681
    107 C35         2.4130   -3.6740   -1.7780 c         1 MOL      0.985733
    108 O17         2.5560   -4.8910   -1.5470 o         1 MOL     -0.792297
    109 O18         1.2640   -3.2510   -1.6340 o         1 MOL     -0.792297
    110 H47         3.3570   -1.5160    0.1190 hn        1 MOL      0.053773
    111 H48         5.3350   -3.3100   -1.2490 h1        1 MOL      0.051028
    112 H49         3.9760   -3.3540   -3.1700 hc        1 MOL      0.080730
    113 H50         3.0800   -1.9390   -2.8370 hc        1 MOL      0.080730
    114 N11         5.9350   -0.3720   -0.9470 n         1 MOL     -0.528378
    115 C36         6.8730    0.7050   -1.1480 c3        1 MOL      0.374702
    116 C37         6.3890    2.1130   -0.6490 c         1 MOL      0.283877
    117 O19         5.9800    2.2250    0.5230 o         1 MOL     -0.453863
    118 C38         8.1290    0.2810   -0.3290 c3        1 MOL     -0.510595
    119 C39         9.2180    1.3070   -0.2290 ca        1 MOL      0.233188
    120 C40         9.5050    1.8970    1.0210 ca        1 MOL     -0.185492
    121 C41        10.1360    1.5510   -1.2380 ca        1 MOL     -0.185492
    122 C42        10.5490    2.7850    1.2070 ca        1 MOL     -0.081848
    123 C43        11.2570    2.3350   -1.0400 ca        1 MOL     -0.081848
    124 C44        11.5200    2.9520    0.1570 ca        1 MOL     -0.167631
    125 H51         5.3780   -0.3000   -0.1070 hn        1 MOL      0.324776
    126 H52         7.0510    0.7670   -2.2240 h1        1 MOL      0.011336
    127 H53         8.4970   -0.6240   -0.8230 hc        1 MOL      0.164512
    128 H54         7.8870   -0.0310    0.6880 hc        1 MOL      0.164512
    129 H55         8.8360    1.7140    1.8570 ha        1 MOL      0.114159
    130 H56         9.9850    1.0620   -2.1890 ha        1 MOL      0.114159
    131 H57        10.6960    3.2470    2.1680 ha        1 MOL      0.099231
    132 H58        11.9000    2.3460   -1.9110 ha        1 MOL      0.099231
    133 H59        12.3410    3.6480    0.1860 ha        1 MOL      0.114808
    134 N12         6.5210    3.1500   -1.5140 n         1 MOL     -0.067007
    135 C45         6.3560    4.6030   -1.1000 c3        1 MOL     -0.082095
    136 C46         4.9970    5.0790   -0.5270 c         1 MOL      0.427362
    137 O20         4.7440    6.2840   -0.3790 o         1 MOL     -0.498269
    138 C47         6.6820    5.3570   -2.3720 c3        1 MOL     -0.053389
    139 C48         6.1760    4.4200   -3.4750 c3        1 MOL      0.047085
    140 C49         6.7230    3.1040   -2.9280 c3        1 MOL     -0.253496
    141 H60         7.1480    4.9670   -0.4370 h1        1 MOL      0.102680
    142 H61         6.2150    6.3370   -2.4120 hc        1 MOL      0.044214
    143 H62         7.7680    5.4280   -2.5140 hc        1 MOL      0.044214
    144 H63         5.0980    4.4410   -3.6380 hc        1 MOL      0.037181
    145 H64         6.4820    4.7130   -4.4800 hc        1 MOL      0.037181
    146 H65         6.2470    2.2320   -3.3800 h1        1 MOL      0.103857
    147 H66         7.7960    2.9990   -3.1120 h1        1 MOL      0.103857
    148 N13         4.0070    4.1360   -0.3240 n         1 MOL     -0.264452
    149 C50         2.6380    4.4870    0.2330 c3        1 MOL     -0.253650
    150 C51         2.6520    4.9230    1.7030 c         1 MOL      0.484681
    151 O21         1.6440    5.4680    2.1580 o         1 MOL     -0.521456
    152 C52         1.7520    3.2790    0.1030 c3        1 MOL     -0.052190
    153 C53         2.3170    2.0620    0.8050 c3        1 MOL     -0.034689
    154 C54         1.4710    0.8240    0.3690 c         1 MOL      0.652425
    155 O22         0.3030    0.7030    0.7520 o         1 MOL     -0.693705
    156 O23         2.0430   -0.1610   -0.1570 o         1 MOL     -0.693705
    157 H67         4.2330    3.1580   -0.3960 hn        1 MOL      0.222564
    158 H68         2.2100    5.2660   -0.3900 h1        1 MOL      0.175240
    159 H69         1.5940    3.0680   -0.9530 hc        1 MOL      0.071848
    160 H70         0.7950    3.5410    0.5560 hc        1 MOL      0.071848
    161 H71         2.1270    2.1000    1.8720 hc        1 MOL      0.034132
    162 H72         3.4060    1.9210    0.7320 hc        1 MOL      0.034132
    163 N14         3.6720    4.6600    2.4980 n         1 MOL     -0.214787
    164 C55         3.8500    5.2310    3.8730 c3        1 MOL     -0.093554
    165 H73         2.9840    5.8440    4.1260 h1        1 MOL      0.067936
    166 H74         3.9430    4.4210    4.5960 h1        1 MOL      0.067936
    167 H75         4.7490    5.8460    3.8980 h1        1 MOL      0.067936
    168 H76         4.4520    4.1800    2.0860 hn        1 MOL      0.209346
    169 Ca1        -0.4200   -1.4200   -0.7580 Ca        1 MOL      1.777892
    170 O24         0.6260   -0.1130   -2.9680 oh        1 MOL     -0.913981
    171 H77         1.2400   -0.2980   -3.6780 ho        1 MOL      0.434743
    172 H78         0.1820    0.6920   -3.2300 ho        1 MOL      0.434743
    173 O25        -2.5400   -1.3650    0.9370 oh        1 MOL     -0.913981
    174 H79        -3.4630   -1.4130    0.6670 ho        1 MOL      0.434743
    175 H80        -2.5390   -0.7460    1.6700 ho        1 MOL      0.434743
@<TRIPOS>BOND
     1    1    2 1   
     2    1    4 1   
     3    1    5 1   
     4    1    6 1   
     5    2    3 2   
     6    2    7 1   
     7    7    8 1   
     8    7   15 1   
     9    8    9 1   
    10    8   11 1   
    11    8   16 1   
    12    9   10 2   
    13    9   19 1   
    14   11   12 1   
    15   11   17 1   
    16   11   18 1   
    17   12   13 1   
    18   12   14 1   
    19   19   20 1   
    20   19   24 1   
    21   20   21 1   
    22   20   23 1   
    23   20   25 1   
    24   21   22 2   
    25   21   29 1   
    26   23   26 1   
    27   23   27 1   
    28   23   28 1   
    29   29   30 1   
    30   29   37 1   
    31   30   31 1   
    32   30   33 1   
    33   30   38 1   
    34   31   32 2   
    35   31   41 1   
    36   33   34 1   
    37   33   39 1   
    38   33   40 1   
    39   34   35 1   
    40   34   36 1   
    41   41   42 1   
    42   41   45 1   
    43   42   43 1   
    44   42   46 1   
    45   42   47 1   
    46   43   44 2   
    47   43   48 1   
    48   48   49 1   
    49   48   56 1   
    50   49   50 1   
    51   49   52 1   
    52   49   57 1   
    53   50   51 2   
    54   50   62 1   
    55   52   53 1   
    56   52   58 1   
    57   52   59 1   
    58   53   54 1   
    59   53   55 2   
    60   54   60 1   
    61   54   61 1   
    62   62   63 1   
    63   62   66 1   
    64   63   64 1   
    65   63   67 1   
    66   63   68 1   
    67   64   65 2   
    68   64   69 1   
    69   69   70 1   
    70   69   76 1   
    71   70   71 1   
    72   70   73 1   
    73   70   77 1   
    74   71   72 2   
    75   71   83 1   
    76   73   74 1   
    77   73   75 1   
    78   73   78 1   
    79   74   80 1   
    80   74   81 1   
    81   74   82 1   
    82   75   79 1   
    83   83   84 1   
    84   83   91 1   
    85   84   85 1   
    86   84   87 1   
    87   84   92 1   
    88   85   86 2   
    89   85  102 1   
    90   87   88 1   
    91   87   89 1   
    92   87   93 1   
    93   88   90 1   
    94   88   94 1   
    95   88   95 1   
    96   89   96 1   
    97   89   97 1   
    98   89   98 1   
    99   90   99 1   
   100   90  100 1   
   101   90  101 1   
   102  102  103 1   
   103  102  110 1   
   104  103  104 1   
   105  103  106 1   
   106  103  111 1   
   107  104  105 2   
   108  104  114 1   
   109  106  107 1   
   110  106  112 1   
   111  106  113 1   
   112  107  108 1   
   113  107  109 1   
   114  114  115 1   
   115  114  125 1   
   116  115  116 1   
   117  115  118 1   
   118  115  126 1   
   119  116  117 2   
   120  116  134 1   
   121  118  119 1   
   122  118  127 1   
   123  118  128 1   
   124  119  120 ar  
   125  119  121 ar  
   126  120  122 ar  
   127  120  129 1   
   128  121  123 ar  
   129  121  130 1   
   130  122  124 ar  
   131  122  131 1   
   132  123  124 ar  
   133  123  132 1   
   134  124  133 1   
   135  134  135 1   
   136  134  140 1   
   137  135  136 1   
   138  135  138 1   
   139  135  141 1   
   140  136  137 2   
   141  136  148 1   
   142  138  139 1   
   143  138  142 1   
   144  138  143 1   
   145  139  140 1   
   146  139  144 1   
   147  139  145 1   
   148  140  146 1   
   149  140  147 1   
   150  148  149 1   
   151  148  157 1   
   152  149  150 1   
   153  149  152 1   
   154  149  158 1   
   155  150  151 2   
   156  150  163 1   
   157  152  153 1   
   158  152  159 1   
   159  152  160 1   
   160  153  154 1   
   161  153  161 1   
   162  153  162 1   
   163  154  155 1   
   164  154  156 1   
   165  163  164 1   
   166  163  168 1   
   167  164  165 1   
   168  164  166 1   
   169  164  167 1   
   170  170  171 1   
   171  170  172 1   
   172  173  174 1   
   173  173  175 1   
@<TRIPOS>SUBSTRUCTURE
     1 MOL         1 TEMP              0 ****  ****    0 ROOT
