@<TRIPOS>MOLECULE
MOL
  178   175     1     0     0
SMALL
resp


@<TRIPOS>ATOM
      1 C1         -6.1490    7.6220    2.2990 c3        1 MOL     -0.410490
      2 C2         -6.8630    6.8290    1.1980 c         1 MOL      0.722348
      3 O1         -6.7760    7.2760    0.0230 o         1 MOL     -0.603234
      4 H1         -5.8420    6.9430    3.0950 hc        1 MOL      0.101415
      5 H2         -5.2690    8.1120    1.8820 hc        1 MOL      0.101415
      6 H3         -6.8270    8.3730    2.7030 hc        1 MOL      0.101415
      7 N1         -7.5850    5.7550    1.4940 n         1 MOL     -0.632245
      8 C3         -8.3560    5.0130    0.4660 c3        1 MOL      0.430755
      9 C4         -7.4760    3.9180   -0.2020 c         1 MOL      0.421410
     10 O2         -7.8550    2.6440   -0.1650 o         1 MOL     -0.492329
     11 C5         -9.6500    4.3810    1.0860 c3        1 MOL     -0.311203
     12 C6        -10.6680    3.9150    0.0170 c         1 MOL      0.731451
     13 O3        -11.6080    3.1450    0.3270 o         1 MOL     -0.724952
     14 O4        -10.5110    4.3180   -1.1730 o         1 MOL     -0.724952
     15 H4         -7.6150    5.3800    2.4320 hn        1 MOL      0.313652
     16 H5         -8.7530    5.6840   -0.2860 h1        1 MOL     -0.009595
     17 H6        -10.2130    5.1300    1.6510 hc        1 MOL      0.031989
     18 H7         -9.3680    3.5780    1.7690 hc        1 MOL      0.031989
     19 N2         -6.2540    4.2930   -0.6900 n         1 MOL     -0.643066
     20 C7         -5.3430    3.3270   -1.3150 c3        1 MOL      0.439504
     21 C8         -4.6810    2.5580   -0.1280 c         1 MOL      0.515426
     22 O5         -4.0920    3.1480    0.8110 o         1 MOL     -0.585138
     23 C9         -4.2430    3.9980   -2.1000 c3        1 MOL     -0.444749
     24 H8         -5.9700    5.2550   -0.5850 hn        1 MOL      0.315787
     25 H9         -5.8890    2.6310   -1.9390 h1        1 MOL      0.038181
     26 H10        -3.7670    4.7430   -1.4710 hc        1 MOL      0.117443
     27 H11        -3.4550    3.3290   -2.4290 hc        1 MOL      0.117443
     28 H12        -4.6310    4.3020   -3.0730 hc        1 MOL      0.117443
     29 N3         -4.7140    1.2250   -0.1000 n         1 MOL     -0.398532
     30 C10        -5.4420    0.3420   -1.0530 c3        1 MOL      0.031773
     31 C11        -5.6470   -1.0800   -0.5400 c         1 MOL      0.541470
     32 O6         -4.8810   -1.5450    0.2990 o         1 MOL     -0.492634
     33 C12        -4.7010    0.2240   -2.4040 c3        1 MOL     -0.245939
     34 C13        -3.2080   -0.2970   -2.4080 c         1 MOL      0.781577
     35 O7         -2.6180   -0.7610   -1.3830 o         1 MOL     -0.708240
     36 O8         -2.6480   -0.3540   -3.5270 o         1 MOL     -0.708240
     37 H13        -4.2980    0.7650    0.6930 hn        1 MOL      0.251199
     38 H14        -6.4490    0.7580   -1.1140 h1        1 MOL      0.032164
     39 H15        -4.6420    1.1830   -2.9140 hc        1 MOL      0.052049
     40 H16        -5.2470   -0.4610   -3.0560 hc        1 MOL      0.052049
     41 N4         -6.5610   -1.8690   -1.0980 n         1 MOL     -0.457521
     42 C14        -6.7630   -3.2940   -0.7150 c3        1 MOL      0.207526
     43 C15        -6.4650   -4.3140   -1.8940 c         1 MOL      0.443045
     44 O9         -7.4280   -4.9100   -2.4850 o         1 MOL     -0.541546
     45 H17        -7.0800   -1.5440   -1.9060 hn        1 MOL      0.318308
     46 H18        -7.8000   -3.4540   -0.4030 h1        1 MOL     -0.006760
     47 H19        -6.0340   -3.5020    0.0630 h1        1 MOL     -0.006760
     48 N5         -5.2070   -4.4150   -2.3770 n         1 MOL     -0.417348
     49 C16        -3.9850   -3.9550   -1.7430 c3        1 MOL     -0.164819
     50 C17        -3.7890   -4.6760   -0.4490 c         1 MOL      0.691835
     51 O10        -3.7080   -5.8200   -0.4370 o         1 MOL     -0.583512
     52 C18        -2.7300   -4.0610   -2.7010 c3        1 MOL     -0.094959
     53 C19        -1.4070   -3.6430   -2.1330 c         1 MOL      0.489041
     54 N6         -0.4410   -3.4910   -3.0330 n         1 MOL     -0.721939
     55 O11        -1.3240   -3.4400   -0.9180 o         1 MOL     -0.600498
     56 H20        -5.0720   -4.8550   -3.2790 hn        1 MOL      0.311683
     57 H21        -3.9470   -2.8900   -1.5000 h1        1 MOL      0.105180
     58 H22        -2.9400   -3.4860   -3.6010 hc        1 MOL      0.074391
     59 H23        -2.6900   -5.0710   -3.1010 hc        1 MOL      0.074391
     60 H24        -0.5950   -3.6490   -4.0180 hn        1 MOL      0.351938
     61 H25         0.4470   -3.1240   -2.7310 hn        1 MOL      0.351938
     62 N7         -3.7620   -4.0820    0.7370 n         1 MOL     -0.059491
     63 C20        -3.5690   -4.8020    1.9770 c3        1 MOL     -0.423923
     64 C21        -2.1820   -5.4350    2.2040 c         1 MOL      0.648430
     65 O12        -2.0840   -6.3840    2.9510 o         1 MOL     -0.573277
     66 H26        -3.8220   -3.0720    0.7160 hn        1 MOL      0.174728
     67 H27        -4.3070   -5.5940    2.0830 h1        1 MOL      0.128294
     68 H28        -3.6830   -4.0680    2.7710 h1        1 MOL      0.128294
     69 N8         -1.2000   -4.9810    1.4790 n         1 MOL     -0.420218
     70 C22         0.1350   -5.4530    1.5850 c3        1 MOL      0.177143
     71 C23         1.0940   -4.1830    1.6680 c         1 MOL      0.371142
     72 O13         0.7680   -3.1380    1.0690 o         1 MOL     -0.611559
     73 C24         0.4670   -6.4710    0.4620 c3        1 MOL      0.298801
     74 C25         1.9670   -6.7590    0.5620 c3        1 MOL     -0.452183
     75 O14        -0.2730   -7.6930    0.6440 oh        1 MOL     -0.564593
     76 H29        -1.3100   -4.2750    0.7650 hn        1 MOL      0.271170
     77 H30         0.2210   -5.9570    2.5510 h1        1 MOL      0.002650
     78 H31         0.2470   -6.0580   -0.5250 h1        1 MOL      0.044998
     79 H32         0.3150   -8.3810    0.3200 ho        1 MOL      0.364552
     80 H33         2.2800   -7.2450    1.4810 hc        1 MOL      0.103386
     81 H34         2.2140   -7.3900   -0.2930 hc        1 MOL      0.103386
     82 H35         2.6690   -5.9360    0.4020 hc        1 MOL      0.103386
     83 N9          2.2270   -4.3980    2.3530 n         1 MOL     -0.302393
     84 C26         3.2110   -3.3480    2.5000 c3        1 MOL      0.002412
     85 C27         4.2610   -3.4170    1.3870 c         1 MOL      0.305946
     86 O15         5.0630   -4.3020    1.3060 o         1 MOL     -0.559728
     87 C28         3.7830   -3.4450    3.9940 c3        1 MOL      0.135972
     88 C29         4.7870   -2.3150    4.1740 c3        1 MOL     -0.055365
     89 C30         2.6100   -3.3540    4.9930 c3        1 MOL     -0.269776
     90 C31         4.3290   -0.8640    3.8270 c3        1 MOL     -0.118538
     91 H36         2.4070   -5.3440    2.6630 hn        1 MOL      0.284371
     92 H37         2.7160   -2.3870    2.3980 h1        1 MOL      0.202344
     93 H38         4.2620   -4.4260    4.0440 hc        1 MOL     -0.002696
     94 H39         5.6470   -2.4610    3.5280 hc        1 MOL      0.009722
     95 H40         5.1560   -2.3060    5.2060 hc        1 MOL      0.009722
     96 H41         2.9960   -3.4010    6.0140 hc        1 MOL      0.064948
     97 H42         2.0740   -2.4420    4.7080 hc        1 MOL      0.064948
     98 H43         2.0290   -4.2740    4.9360 hc        1 MOL      0.064948
     99 H44         4.2830   -0.7510    2.7390 hc        1 MOL      0.038178
    100 H45         3.4050   -0.5680    4.3370 hc        1 MOL      0.038178
    101 H46         5.1770   -0.2840    4.2020 hc        1 MOL      0.038178
    102 N10         4.0900   -2.5600    0.3950 n         1 MOL      0.038165
    103 C32         4.7940   -2.6870   -0.8310 c3        1 MOL      0.033138
    104 C33         5.6150   -1.4990   -1.3040 c         1 MOL      0.349385
    105 O16         6.2250   -1.6210   -2.3490 o         1 MOL     -0.516350
    106 C34         3.7670   -3.0400   -1.9530 c3        1 MOL     -0.066584
    107 C35         2.7420   -1.9480   -2.3810 c         1 MOL      0.679180
    108 O17         1.5240   -2.0480   -2.0520 o         1 MOL     -0.659235
    109 O18         3.1050   -0.9660   -3.1050 o         1 MOL     -0.659235
    110 H47         3.3580   -1.8820    0.5590 hn        1 MOL      0.057714
    111 H48         5.4440   -3.5630   -0.8940 h1        1 MOL      0.102313
    112 H49         3.2410   -3.8750   -1.4890 hc        1 MOL      0.004975
    113 H50         4.2190   -3.3420   -2.8940 hc        1 MOL      0.004975
    114 N11         5.6770   -0.3650   -0.6450 n         1 MOL     -0.422942
    115 C36         6.3240    0.8690   -1.1280 c3        1 MOL      0.282124
    116 C37         5.9530    2.1380   -0.2940 c         1 MOL      0.369370
    117 O19         5.8390    1.9700    0.9160 o         1 MOL     -0.478906
    118 C38         7.8360    0.7690   -1.0060 c3        1 MOL     -0.038998
    119 C39         8.6330    1.6930   -1.8220 ca        1 MOL     -0.012815
    120 C40         9.5910    2.5470   -1.2900 ca        1 MOL     -0.071538
    121 C41         8.4380    1.5870   -3.2620 ca        1 MOL     -0.071538
    122 C42        10.4380    3.3190   -2.0350 ca        1 MOL     -0.156890
    123 C43         9.4360    2.2610   -4.0500 ca        1 MOL     -0.156890
    124 C44        10.2810    3.2420   -3.4620 ca        1 MOL     -0.135224
    125 H51         5.2450   -0.2410    0.2580 hn        1 MOL      0.227823
    126 H52         5.9660    0.9970   -2.1480 h1        1 MOL      0.098618
    127 H53         8.1370   -0.2500   -1.2700 hc        1 MOL      0.033641
    128 H54         8.0800    0.8540    0.0500 hc        1 MOL      0.033641
    129 H55         9.7420    2.5840   -0.2240 ha        1 MOL      0.099434
    130 H56         7.7030    0.9260   -3.6960 ha        1 MOL      0.099434
    131 H57        11.0510    4.0560   -1.5220 ha        1 MOL      0.121522
    132 H58         9.3800    2.1020   -5.1170 ha        1 MOL      0.121522
    133 H59        10.9860    3.8410   -4.0230 ha        1 MOL      0.104971
    134 N12         5.8820    3.3270   -0.9660 n         1 MOL     -0.247704
    135 C45         5.9720    4.6260   -0.2940 c3        1 MOL      0.200502
    136 C46         4.7870    4.9460    0.6660 c         1 MOL      0.243197
    137 O20         4.6890    6.0280    1.2220 o         1 MOL     -0.504115
    138 C47         6.0930    5.7000   -1.3700 c3        1 MOL     -0.314609
    139 C48         6.4770    4.8410   -2.5890 c3        1 MOL      0.136069
    140 C49         5.7870    3.5540   -2.3330 c3        1 MOL     -0.230707
    141 H60         6.8420    4.5250    0.3490 h1        1 MOL      0.037281
    142 H61         5.1860    6.2670   -1.5600 hc        1 MOL      0.121728
    143 H62         6.8700    6.3850   -1.0200 hc        1 MOL      0.121728
    144 H63         6.1980    5.2630   -3.5640 hc        1 MOL      0.005120
    145 H64         7.5640    4.7980   -2.6240 hc        1 MOL      0.005120
    146 H65         4.7170    3.6290   -2.5220 h1        1 MOL      0.113385
    147 H66         6.1400    2.7610   -2.9900 h1        1 MOL      0.113385
    148 N13         3.7420    4.1260    0.7260 n         1 MOL     -0.053798
    149 C50         2.6020    4.2320    1.5060 c3        1 MOL     -0.217971
    150 C51         2.8950    4.3460    3.0290 c         1 MOL      0.610724
    151 O21         2.1470    5.0460    3.6090 o         1 MOL     -0.566085
    152 C52         1.7790    2.9040    1.5350 c3        1 MOL     -0.015603
    153 C53         2.4820    1.6330    2.0820 c3        1 MOL      0.067265
    154 C54         1.8010    0.3350    1.4930 c         1 MOL      0.504972
    155 O22         2.1540   -0.0410    0.3570 o         1 MOL     -0.666461
    156 O23         0.7570   -0.1070    1.9300 o         1 MOL     -0.666461
    157 H67         3.7640    3.3030    0.1510 hn        1 MOL      0.204849
    158 H68         1.9620    5.0540    1.1810 h1        1 MOL      0.129546
    159 H69         1.3880    2.6520    0.5450 hc        1 MOL      0.039196
    160 H70         0.9540    3.1060    2.2150 hc        1 MOL      0.039196
    161 H71         2.5120    1.5340    3.1750 hc        1 MOL     -0.056074
    162 H72         3.5200    1.6140    1.7740 hc        1 MOL     -0.056074
    163 N14         3.9530    3.7790    3.5910 n         1 MOL     -0.212112
    164 C55         4.3050    4.1810    4.9720 c3        1 MOL     -0.094925
    165 H73         4.5390    3.2930    5.5600 h1        1 MOL      0.059315
    166 H74         5.1720    4.8410    4.9500 h1        1 MOL      0.059315
    167 H75         3.4620    4.7020    5.4250 h1        1 MOL      0.059315
    168 H76         4.5450    3.2020    3.0200 hn        1 MOL      0.178710
    169 Ca1        -0.2000   -1.1240   -0.1850 Ca        1 MOL      1.768881
    170 O24        -0.0010    0.3080   -2.5910 oh        1 MOL     -0.826221
    171 H77         0.7670    0.0410   -3.1060 ho        1 MOL      0.383643
    172 H78        -0.7400    0.2030   -3.1920 ho        1 MOL      0.383643
    173 O25        -2.4110   -1.3910    1.4450 oh        1 MOL     -0.826221
    174 H79        -3.2840   -1.3560    1.0450 ho        1 MOL      0.383643
    175 H80        -2.4660   -0.7940    2.1870 ho        1 MOL      0.383643
    176 O26        -1.3020    1.2650    0.4600 oh        1 MOL     -0.826221
    177 H81        -0.9750    1.4810    1.3350 ho        1 MOL      0.383643
    178 H82        -2.1060    1.7630    0.3760 ho        1 MOL      0.383643
@<TRIPOS>BOND
     1    1    2 1   
     2    1    4 1   
     3    1    5 1   
     4    1    6 1   
     5    2    3 2   
     6    2    7 1   
     7    7    8 1   
     8    7   15 1   
     9    8    9 1   
    10    8   11 1   
    11    8   16 1   
    12    9   10 2   
    13    9   19 1   
    14   11   12 1   
    15   11   17 1   
    16   11   18 1   
    17   12   13 1   
    18   12   14 1   
    19   19   20 1   
    20   19   24 1   
    21   20   21 1   
    22   20   23 1   
    23   20   25 1   
    24   21   22 2   
    25   21   29 1   
    26   23   26 1   
    27   23   27 1   
    28   23   28 1   
    29   29   30 1   
    30   29   37 1   
    31   30   31 1   
    32   30   33 1   
    33   30   38 1   
    34   31   32 2   
    35   31   41 1   
    36   33   34 1   
    37   33   39 1   
    38   33   40 1   
    39   34   35 1   
    40   34   36 1   
    41   41   42 1   
    42   41   45 1   
    43   42   43 1   
    44   42   46 1   
    45   42   47 1   
    46   43   44 2   
    47   43   48 1   
    48   48   49 1   
    49   48   56 1   
    50   49   50 1   
    51   49   52 1   
    52   49   57 1   
    53   50   51 2   
    54   50   62 1   
    55   52   53 1   
    56   52   58 1   
    57   52   59 1   
    58   53   54 1   
    59   53   55 2   
    60   54   60 1   
    61   54   61 1   
    62   62   63 1   
    63   62   66 1   
    64   63   64 1   
    65   63   67 1   
    66   63   68 1   
    67   64   65 2   
    68   64   69 1   
    69   69   70 1   
    70   69   76 1   
    71   70   71 1   
    72   70   73 1   
    73   70   77 1   
    74   71   72 2   
    75   71   83 1   
    76   73   74 1   
    77   73   75 1   
    78   73   78 1   
    79   74   80 1   
    80   74   81 1   
    81   74   82 1   
    82   75   79 1   
    83   83   84 1   
    84   83   91 1   
    85   84   85 1   
    86   84   87 1   
    87   84   92 1   
    88   85   86 2   
    89   85  102 1   
    90   87   88 1   
    91   87   89 1   
    92   87   93 1   
    93   88   90 1   
    94   88   94 1   
    95   88   95 1   
    96   89   96 1   
    97   89   97 1   
    98   89   98 1   
    99   90   99 1   
   100   90  100 1   
   101   90  101 1   
   102  102  103 1   
   103  102  110 1   
   104  103  104 1   
   105  103  106 1   
   106  103  111 1   
   107  104  105 2   
   108  104  114 1   
   109  106  107 1   
   110  106  112 1   
   111  106  113 1   
   112  107  108 1   
   113  107  109 1   
   114  114  115 1   
   115  114  125 1   
   116  115  116 1   
   117  115  118 1   
   118  115  126 1   
   119  116  117 2   
   120  116  134 1   
   121  118  119 1   
   122  118  127 1   
   123  118  128 1   
   124  119  120 ar  
   125  119  121 ar  
   126  120  122 ar  
   127  120  129 1   
   128  121  123 ar  
   129  121  130 1   
   130  122  124 ar  
   131  122  131 1   
   132  123  124 ar  
   133  123  132 1   
   134  124  133 1   
   135  134  135 1   
   136  134  140 1   
   137  135  136 1   
   138  135  138 1   
   139  135  141 1   
   140  136  137 2   
   141  136  148 1   
   142  138  139 1   
   143  138  142 1   
   144  138  143 1   
   145  139  140 1   
   146  139  144 1   
   147  139  145 1   
   148  140  146 1   
   149  140  147 1   
   150  148  149 1   
   151  148  157 1   
   152  149  150 1   
   153  149  152 1   
   154  149  158 1   
   155  150  151 2   
   156  150  163 1   
   157  152  153 1   
   158  152  159 1   
   159  152  160 1   
   160  153  154 1   
   161  153  161 1   
   162  153  162 1   
   163  154  155 1   
   164  154  156 1   
   165  163  164 1   
   166  163  168 1   
   167  164  165 1   
   168  164  166 1   
   169  164  167 1   
   170  170  171 1   
   171  170  172 1   
   172  173  174 1   
   173  173  175 1   
   174  176  177 1   
   175  176  178 1   
@<TRIPOS>SUBSTRUCTURE
     1 MOL         1 TEMP              0 ****  ****    0 ROOT
