@<TRIPOS>MOLECULE
MOL
  184   179     1     0     0
SMALL
resp


@<TRIPOS>ATOM
      1 C1          0.3530    4.7130    3.3450 c3        1 MOL     -0.140306
      2 C2         -1.2290    4.6690    3.4120 c         1 MOL      0.803439
      3 O1         -1.8450    3.8490    4.0430 o         1 MOL     -0.624913
      4 H1          0.6890    5.7500    3.3690 hc        1 MOL      0.022043
      5 H2          0.7680    4.1770    4.1990 hc        1 MOL      0.022043
      6 H3          0.6910    4.2440    2.4210 hc        1 MOL      0.022043
      7 N1         -1.8990    5.6510    2.7930 n         1 MOL     -0.682061
      8 C3         -3.3720    5.7140    2.7920 c3        1 MOL      0.377214
      9 C4         -3.9470    5.1920    1.4540 c         1 MOL      0.641106
     10 O2         -3.2990    5.4110    0.3940 o         1 MOL     -0.537233
     11 C5         -3.8750    7.1470    3.1360 c3        1 MOL     -0.332066
     12 C6         -3.2300    8.2620    2.2660 c         1 MOL      0.742789
     13 O3         -3.8960    8.8480    1.3790 o         1 MOL     -0.723534
     14 O4         -2.0190    8.6030    2.4670 o         1 MOL     -0.723534
     15 H4         -1.3380    6.2750    2.2290 hn        1 MOL      0.309391
     16 H5         -3.8050    5.0160    3.5060 h1        1 MOL     -0.022259
     17 H6         -3.7360    7.2140    4.2080 hc        1 MOL      0.012347
     18 H7         -4.9250    7.1610    2.8480 hc        1 MOL      0.012347
     19 N2         -5.1100    4.4930    1.4420 n         1 MOL     -0.632105
     20 C7         -5.6750    3.8880    0.2650 c3        1 MOL      0.272433
     21 C8         -4.7950    2.7290   -0.1800 c         1 MOL      0.619009
     22 O5         -4.5760    1.7760    0.6300 o         1 MOL     -0.542529
     23 C9         -7.1390    3.4280    0.5250 c3        1 MOL     -0.188825
     24 H8         -5.5640    4.2950    2.3240 hn        1 MOL      0.310884
     25 H9         -5.7780    4.5720   -0.5720 h1        1 MOL      0.040700
     26 H10        -7.5830    2.8420   -0.2730 hc        1 MOL      0.034423
     27 H11        -7.0570    2.7090    1.3470 hc        1 MOL      0.034423
     28 H12        -7.7460    4.3230    0.6480 hc        1 MOL      0.034423
     29 N3         -4.2330    2.7580   -1.3880 n         1 MOL     -0.810301
     30 C10        -3.2380    1.6840   -1.7960 c3        1 MOL      0.116179
     31 C11        -3.5600    0.8830   -3.0700 c         1 MOL      0.412008
     32 O6         -2.6290    0.1840   -3.5040 o         1 MOL     -0.495042
     33 C12        -1.8480    2.3480   -1.8720 c3        1 MOL     -0.009834
     34 C13        -1.6630    3.5430   -2.8210 c         1 MOL      0.667151
     35 O7         -0.5840    4.1140   -2.6840 o         1 MOL     -0.712965
     36 O8         -2.5660    3.9520   -3.6140 o         1 MOL     -0.712965
     37 H13        -4.3930    3.5630   -1.9700 hn        1 MOL      0.355851
     38 H14        -3.1810    0.9200   -1.0160 h1        1 MOL      0.093869
     39 H15        -1.1320    1.5320   -1.9980 hc        1 MOL      0.043918
     40 H16        -1.6390    2.7720   -0.8980 hc        1 MOL      0.043918
     41 N4         -4.7020    1.0240   -3.7790 n         1 MOL     -0.182424
     42 C14        -5.0450    0.2600   -4.9520 c3        1 MOL     -0.484335
     43 C15        -5.2800   -1.2380   -4.7000 c         1 MOL      0.677529
     44 O9         -5.9060   -1.9090   -5.5080 o         1 MOL     -0.579020
     45 H17        -5.3820    1.5240   -3.2230 hn        1 MOL      0.239856
     46 H18        -4.2160    0.3770   -5.6460 h1        1 MOL      0.190279
     47 H19        -5.9820    0.6890   -5.3270 h1        1 MOL      0.190279
     48 N5         -4.8430   -1.7500   -3.5300 n         1 MOL     -0.401097
     49 C16        -5.0450   -3.0740   -2.9010 c3        1 MOL      0.016981
     50 C17        -4.8950   -3.0470   -1.4340 c         1 MOL      0.355018
     51 O10        -4.0370   -2.3430   -0.8410 o         1 MOL     -0.395508
     52 C18        -3.9240   -3.9720   -3.5390 c3        1 MOL     -0.076724
     53 C19        -4.3220   -5.3980   -3.6470 c         1 MOL      0.611365
     54 N6         -4.3540   -6.1480   -2.5640 n         1 MOL     -0.800438
     55 O11        -4.6440   -5.8310   -4.7530 o         1 MOL     -0.582946
     56 H20        -4.2280   -1.1100   -3.0380 hn        1 MOL      0.199920
     57 H21        -6.0500   -3.3570   -3.2210 h1        1 MOL      0.081326
     58 H22        -2.9720   -3.9840   -3.0070 hc        1 MOL      0.069054
     59 H23        -3.7550   -3.6760   -4.5840 hc        1 MOL      0.069054
     60 H24        -4.2460   -5.6920   -1.6760 hn        1 MOL      0.352425
     61 H25        -4.6150   -7.1180   -2.7030 hn        1 MOL      0.352425
     62 N7         -5.7090   -3.8870   -0.7230 n         1 MOL     -0.219941
     63 C20        -5.7640   -4.1600    0.7240 c3        1 MOL     -0.319285
     64 C21        -4.5280   -4.9450    1.1020 c         1 MOL      0.560918
     65 O12        -3.7570   -5.3480    0.2450 o         1 MOL     -0.444592
     66 H26        -6.4680   -4.2810   -1.2600 hn        1 MOL      0.220715
     67 H27        -6.6850   -4.7040    0.9430 h1        1 MOL      0.149889
     68 H28        -5.8090   -3.1790    1.1880 h1        1 MOL      0.149889
     69 N8         -4.2670   -5.1610    2.3920 n         1 MOL     -0.386072
     70 C22        -3.1560   -5.9820    2.8920 c3        1 MOL     -0.257070
     71 C23        -1.8350   -5.2660    3.1430 c         1 MOL      0.615115
     72 O13        -0.7800   -5.8260    3.0100 o         1 MOL     -0.584147
     73 C24        -3.5810   -6.7180    4.1240 c3        1 MOL      0.532206
     74 C25        -3.7910   -6.0330    5.4900 c3        1 MOL     -0.329715
     75 O14        -4.7020   -7.4180    3.8600 oh        1 MOL     -0.624250
     76 H29        -4.8530   -4.7340    3.0930 hn        1 MOL      0.261865
     77 H30        -2.9420   -6.7410    2.1360 h1        1 MOL      0.139780
     78 H31        -2.7520   -7.3950    4.3120 h1        1 MOL      0.005462
     79 H32        -5.3910   -6.7760    3.6930 ho        1 MOL      0.348262
     80 H33        -4.0630   -6.7530    6.2480 hc        1 MOL      0.072828
     81 H34        -2.8550   -5.5050    5.6900 hc        1 MOL      0.072828
     82 H35        -4.4770   -5.1840    5.4420 hc        1 MOL      0.072828
     83 N9         -1.8130   -3.9370    3.3170 n         1 MOL     -0.318571
     84 C26        -0.5820   -3.0940    3.3890 c3        1 MOL     -0.007699
     85 C27        -0.6330   -1.9060    2.3380 c         1 MOL      0.470520
     86 O15        -1.6580   -1.2190    2.2180 o         1 MOL     -0.484162
     87 C28        -0.3980   -2.6000    4.8920 c3        1 MOL      0.144613
     88 C29         0.4150   -3.7470    5.5910 c3        1 MOL     -0.208516
     89 C30         0.3790   -1.2860    4.9340 c3        1 MOL     -0.128179
     90 C31         0.5020   -3.7790    7.0970 c3        1 MOL     -0.039541
     91 H36        -2.7270   -3.5100    3.3990 hn        1 MOL      0.210820
     92 H37         0.3150   -3.6130    3.0610 h1        1 MOL      0.079926
     93 H38        -1.4040   -2.5550    5.3170 hc        1 MOL      0.006449
     94 H39         1.4270   -3.8060    5.1920 hc        1 MOL      0.049535
     95 H40         0.0060   -4.7020    5.2870 hc        1 MOL      0.049535
     96 H41         1.2720   -1.4190    4.3180 hc        1 MOL      0.047574
     97 H42        -0.1970   -0.4500    4.5340 hc        1 MOL      0.047574
     98 H43         0.6890   -0.9520    5.9270 hc        1 MOL      0.047574
     99 H44         0.7570   -2.8290    7.5530 hc        1 MOL      0.013961
    100 H45        -0.4940   -4.0510    7.4640 hc        1 MOL      0.013961
    101 H46         1.2510   -4.4580    7.4930 hc        1 MOL      0.013961
    102 N10         0.4490   -1.5680    1.6500 n         1 MOL     -0.514121
    103 C32         0.6320   -0.4640    0.7140 c3        1 MOL      0.169141
    104 C33         1.5330   -0.9310   -0.4590 c         1 MOL      0.416243
    105 O16         1.3620   -0.4950   -1.6130 o         1 MOL     -0.504714
    106 C34         1.2130    0.7690    1.4960 c3        1 MOL      0.057470
    107 C35         0.7150    2.0370    0.8140 c         1 MOL      0.771743
    108 O17         1.4120    2.5690   -0.0910 o         1 MOL     -0.798260
    109 O18        -0.3230    2.5420    1.1940 o         1 MOL     -0.798260
    110 H47         1.1950   -2.2300    1.8100 hn        1 MOL      0.251673
    111 H48        -0.3360   -0.1350    0.3300 h1        1 MOL      0.131562
    112 H49         2.2970    0.7970    1.5840 hc        1 MOL     -0.023637
    113 H50         0.7770    0.8510    2.4880 hc        1 MOL     -0.023637
    114 N11         2.5040   -1.8380   -0.2200 n         1 MOL     -0.455484
    115 C36         3.4460   -2.5110   -1.1500 c3        1 MOL      0.492150
    116 C37         4.8970   -2.2410   -0.6310 c         1 MOL      0.126678
    117 O19         5.0810   -2.3630    0.6210 o         1 MOL     -0.434007
    118 C38         3.0540   -3.9340   -1.1720 c3        1 MOL     -0.387373
    119 C39         3.6670   -4.7650   -2.2330 ca        1 MOL      0.276014
    120 C40         3.1840   -4.6210   -3.5710 ca        1 MOL     -0.258759
    121 C41         4.6850   -5.6910   -2.0100 ca        1 MOL     -0.258759
    122 C42         3.6880   -5.4070   -4.5780 ca        1 MOL     -0.080241
    123 C43         5.1570   -6.5080   -3.0850 ca        1 MOL     -0.080241
    124 C44         4.6610   -6.3690   -4.3960 ca        1 MOL     -0.142353
    125 H51         2.6810   -2.1360    0.7270 hn        1 MOL      0.245012
    126 H52         3.2530   -2.0910   -2.1380 h1        1 MOL     -0.033664
    127 H53         2.0010   -4.1030   -1.4120 hc        1 MOL      0.115763
    128 H54         3.2360   -4.4770   -0.2440 hc        1 MOL      0.115763
    129 H55         2.3570   -3.9410   -3.7500 ha        1 MOL      0.149844
    130 H56         5.1160   -5.7260   -1.0190 ha        1 MOL      0.149844
    131 H57         3.2420   -5.3810   -5.5510 ha        1 MOL      0.097648
    132 H58         6.0210   -7.1240   -2.8630 ha        1 MOL      0.097648
    133 H59         4.9400   -6.9760   -5.2480 ha        1 MOL      0.113737
    134 N12         5.9070   -1.9130   -1.5060 n         1 MOL     -0.047499
    135 C45         7.2860   -1.8040   -1.1610 c3        1 MOL      0.121181
    136 C46         7.4940   -1.0490    0.1270 c         1 MOL      0.321775
    137 O20         8.3880   -1.3480    0.9360 o         1 MOL     -0.516851
    138 C47         7.9470   -1.0650   -2.4430 c3        1 MOL      0.099792
    139 C48         6.9880   -1.3740   -3.5440 c3        1 MOL     -0.095225
    140 C49         5.6460   -1.6200   -2.9130 c3        1 MOL     -0.253558
    141 H60         7.7890   -2.7540   -0.9850 h1        1 MOL      0.019377
    142 H61         7.9840    0.0200   -2.3240 hc        1 MOL     -0.005233
    143 H62         8.9900   -1.2750   -2.6730 hc        1 MOL     -0.005233
    144 H63         6.8540   -0.5520   -4.2380 hc        1 MOL      0.056782
    145 H64         7.3130   -2.2950   -4.0260 hc        1 MOL      0.056782
    146 H65         4.9950   -0.7630   -3.0280 h1        1 MOL      0.121722
    147 H66         5.2310   -2.5310   -3.3530 h1        1 MOL      0.121722
    148 N13         6.7560    0.0570    0.3690 n         1 MOL     -0.234482
    149 C50         7.0420    1.0030    1.4330 c3        1 MOL     -0.204843
    150 C51         6.8960    0.5350    2.8880 c         1 MOL      0.528664
    151 O21         7.5020    1.1900    3.7180 o         1 MOL     -0.558749
    152 C52         6.1100    2.2110    1.2690 c3        1 MOL      0.075876
    153 C53         6.3320    3.0420   -0.0250 c3        1 MOL     -0.115380
    154 C54         5.0550    3.8710   -0.3320 c         1 MOL      0.561734
    155 O22         4.9300    4.8910    0.3470 o         1 MOL     -0.653261
    156 O23         4.2890    3.6770   -1.2840 o         1 MOL     -0.653261
    157 H67         5.9890    0.2340   -0.2610 hn        1 MOL      0.273539
    158 H68         8.0790    1.3040    1.3090 h1        1 MOL      0.139265
    159 H69         6.1940    2.8370    2.1530 hc        1 MOL      0.026931
    160 H70         5.0780    1.8590    1.3450 hc        1 MOL      0.026931
    161 H71         6.3310    2.3070   -0.8240 hc        1 MOL      0.004594
    162 H72         7.2380    3.6500    0.0870 hc        1 MOL      0.004594
    163 N14         6.1250   -0.4840    3.2160 n         1 MOL     -0.215758
    164 C55         5.8380   -0.9080    4.5700 c3        1 MOL     -0.191695
    165 H73         5.9900   -1.9840    4.6540 h1        1 MOL      0.088019
    166 H74         6.5040   -0.3930    5.2620 h1        1 MOL      0.088019
    167 H75         4.8040   -0.6680    4.8150 h1        1 MOL      0.088019
    168 H76         5.5570   -0.8380    2.4610 hn        1 MOL      0.209440
    169 Ca1         1.7300    4.4360   -1.7890 Ca        1 MOL      1.777257
    170 O24         2.6150    6.7750   -0.7770 oh        1 MOL     -0.858193
    171 H77         2.1190    7.5010   -1.1450 ho        1 MOL      0.414221
    172 H78         2.9380    7.1080    0.0590 ho        1 MOL      0.414221
    173 O25         3.0010    4.3930   -4.0620 oh        1 MOL     -0.858193
    174 H79         3.3660    5.2210   -4.3690 ho        1 MOL      0.414221
    175 H80         3.2510    3.7570   -4.7320 ho        1 MOL      0.414221
    176 O26         1.3780    2.0470   -3.1490 oh        1 MOL     -0.858193
    177 H81         0.8520    1.7930   -3.9080 ho        1 MOL      0.414221
    178 H82         1.2430    1.3410   -2.5180 ho        1 MOL      0.414221
    179 O27        -0.4930    4.8810    0.0900 oh        1 MOL     -0.858193
    180 H83        -1.3880    5.1880    0.0040 ho        1 MOL      0.414221
    181 H84        -0.5760    3.9830    0.4180 ho        1 MOL      0.414221
    182 O28         0.6410    6.3820   -3.7090 oh        1 MOL     -0.858193
    183 H85        -0.2190    6.1860   -4.0760 ho        1 MOL      0.414221
    184 H86         1.1170    6.7990   -4.4270 ho        1 MOL      0.414221
@<TRIPOS>BOND
     1    1    2 1   
     2    1    4 1   
     3    1    5 1   
     4    1    6 1   
     5    2    3 2   
     6    2    7 1   
     7    7    8 1   
     8    7   15 1   
     9    8    9 1   
    10    8   11 1   
    11    8   16 1   
    12    9   10 2   
    13    9   19 1   
    14   11   12 1   
    15   11   17 1   
    16   11   18 1   
    17   12   13 1   
    18   12   14 1   
    19   19   20 1   
    20   19   24 1   
    21   20   21 1   
    22   20   23 1   
    23   20   25 1   
    24   21   22 2   
    25   21   29 1   
    26   23   26 1   
    27   23   27 1   
    28   23   28 1   
    29   29   30 1   
    30   29   37 1   
    31   30   31 1   
    32   30   33 1   
    33   30   38 1   
    34   31   32 2   
    35   31   41 1   
    36   33   34 1   
    37   33   39 1   
    38   33   40 1   
    39   34   35 1   
    40   34   36 1   
    41   41   42 1   
    42   41   45 1   
    43   42   43 1   
    44   42   46 1   
    45   42   47 1   
    46   43   44 2   
    47   43   48 1   
    48   48   49 1   
    49   48   56 1   
    50   49   50 1   
    51   49   52 1   
    52   49   57 1   
    53   50   51 2   
    54   50   62 1   
    55   52   53 1   
    56   52   58 1   
    57   52   59 1   
    58   53   54 1   
    59   53   55 2   
    60   54   60 1   
    61   54   61 1   
    62   62   63 1   
    63   62   66 1   
    64   63   64 1   
    65   63   67 1   
    66   63   68 1   
    67   64   65 2   
    68   64   69 1   
    69   69   70 1   
    70   69   76 1   
    71   70   71 1   
    72   70   73 1   
    73   70   77 1   
    74   71   72 2   
    75   71   83 1   
    76   73   74 1   
    77   73   75 1   
    78   73   78 1   
    79   74   80 1   
    80   74   81 1   
    81   74   82 1   
    82   75   79 1   
    83   83   84 1   
    84   83   91 1   
    85   84   85 1   
    86   84   87 1   
    87   84   92 1   
    88   85   86 2   
    89   85  102 1   
    90   87   88 1   
    91   87   89 1   
    92   87   93 1   
    93   88   90 1   
    94   88   94 1   
    95   88   95 1   
    96   89   96 1   
    97   89   97 1   
    98   89   98 1   
    99   90   99 1   
   100   90  100 1   
   101   90  101 1   
   102  102  103 1   
   103  102  110 1   
   104  103  104 1   
   105  103  106 1   
   106  103  111 1   
   107  104  105 2   
   108  104  114 1   
   109  106  107 1   
   110  106  112 1   
   111  106  113 1   
   112  107  108 1   
   113  107  109 1   
   114  114  115 1   
   115  114  125 1   
   116  115  116 1   
   117  115  118 1   
   118  115  126 1   
   119  116  117 2   
   120  116  134 1   
   121  118  119 1   
   122  118  127 1   
   123  118  128 1   
   124  119  120 ar  
   125  119  121 ar  
   126  120  122 ar  
   127  120  129 1   
   128  121  123 ar  
   129  121  130 1   
   130  122  124 ar  
   131  122  131 1   
   132  123  124 ar  
   133  123  132 1   
   134  124  133 1   
   135  134  135 1   
   136  134  140 1   
   137  135  136 1   
   138  135  138 1   
   139  135  141 1   
   140  136  137 2   
   141  136  148 1   
   142  138  139 1   
   143  138  142 1   
   144  138  143 1   
   145  139  140 1   
   146  139  144 1   
   147  139  145 1   
   148  140  146 1   
   149  140  147 1   
   150  148  149 1   
   151  148  157 1   
   152  149  150 1   
   153  149  152 1   
   154  149  158 1   
   155  150  151 2   
   156  150  163 1   
   157  152  153 1   
   158  152  159 1   
   159  152  160 1   
   160  153  154 1   
   161  153  161 1   
   162  153  162 1   
   163  154  155 1   
   164  154  156 1   
   165  163  164 1   
   166  163  168 1   
   167  164  165 1   
   168  164  166 1   
   169  164  167 1   
   170  170  171 1   
   171  170  172 1   
   172  173  174 1   
   173  173  175 1   
   174  176  177 1   
   175  176  178 1   
   176  179  180 1   
   177  179  181 1   
   178  182  183 1   
   179  182  184 1   
@<TRIPOS>SUBSTRUCTURE
     1 MOL         1 TEMP              0 ****  ****    0 ROOT
