@<TRIPOS>MOLECULE
MOL
  181   177     1     0     0
SMALL
resp


@<TRIPOS>ATOM
      1 C1         11.1810    6.9200    0.0890 c3        1 MOL     -0.301496
      2 C2         10.3770    5.8300    0.7940 c         1 MOL      0.683624
      3 O1          9.7270    6.1490    1.8190 o         1 MOL     -0.609051
      4 H1         12.2300    6.8390    0.3730 hc        1 MOL      0.078252
      5 H2         11.0870    6.8000   -0.9910 hc        1 MOL      0.078252
      6 H3         10.8000    7.8990    0.3810 hc        1 MOL      0.078252
      7 N1         10.3900    4.5510    0.4440 n         1 MOL     -0.562804
      8 C3         11.2560    3.8520   -0.4650 c3        1 MOL      0.083211
      9 C4         11.9000    2.5830    0.1740 c         1 MOL      0.471979
     10 O2         12.5890    1.8250   -0.5870 o         1 MOL     -0.563435
     11 C5         10.4640    3.5790   -1.7570 c3        1 MOL     -0.131810
     12 C6          9.1880    2.6760   -1.5730 c         1 MOL      0.708544
     13 O3          8.4740    2.3690   -2.5370 o         1 MOL     -0.730686
     14 O4          8.8420    2.3190   -0.3940 o         1 MOL     -0.730686
     15 H4          9.8520    3.9860    1.0870 hn        1 MOL      0.332031
     16 H5         12.1580    4.4280   -0.6640 h1        1 MOL      0.065931
     17 H6         11.1420    3.1340   -2.4760 hc        1 MOL      0.044174
     18 H7         10.1710    4.4720   -2.3070 hc        1 MOL      0.044174
     19 N2         11.6330    2.2500    1.4100 n         1 MOL     -0.487357
     20 C7         12.1650    1.0570    1.9580 c3        1 MOL      0.463594
     21 C8         11.3140   -0.2010    1.8190 c         1 MOL      0.308467
     22 O5         11.5780   -1.1420    2.6180 o         1 MOL     -0.516358
     23 C9         12.6600    1.2570    3.3990 c3        1 MOL     -0.530885
     24 H8         11.0480    2.7980    2.0190 hn        1 MOL      0.292536
     25 H9         13.0070    0.7940    1.3260 h1        1 MOL     -0.010242
     26 H10        13.3570    2.0900    3.4400 hc        1 MOL      0.136120
     27 H11        11.7990    1.3410    4.0660 hc        1 MOL      0.136120
     28 H12        13.0740    0.2900    3.6920 hc        1 MOL      0.136120
     29 N3         10.3780   -0.2590    0.8950 n         1 MOL     -0.119478
     30 C10         9.6590   -1.5490    0.6550 c3        1 MOL     -0.266670
     31 C11         9.0650   -1.5900   -0.7400 c         1 MOL      0.678260
     32 O6          8.8640   -0.6010   -1.4430 o         1 MOL     -0.575332
     33 C12         8.5540   -1.7240    1.7000 c3        1 MOL      0.015180
     34 C13         7.8320   -0.3990    2.0270 c         1 MOL      0.606132
     35 O7          6.8470   -0.0670    1.2890 o         1 MOL     -0.655747
     36 O8          8.1700    0.3320    3.0320 o         1 MOL     -0.655747
     37 H13        10.2600    0.5100    0.2460 hn        1 MOL      0.209135
     38 H14        10.3380   -2.3920    0.6040 h1        1 MOL      0.090101
     39 H15         8.9710   -2.0960    2.6350 hc        1 MOL      0.007718
     40 H16         7.7890   -2.4390    1.3720 hc        1 MOL      0.007718
     41 N4          8.7170   -2.8360   -1.0680 n         1 MOL     -0.456066
     42 C14         7.8660   -3.2720   -2.2250 c3        1 MOL     -0.232680
     43 C15         6.4720   -2.6140   -2.1810 c         1 MOL      0.646332
     44 O9          6.2120   -1.4790   -1.7490 o         1 MOL     -0.650009
     45 H17         8.7990   -3.4870   -0.2960 hn        1 MOL      0.319896
     46 H18         7.6850   -4.3480   -2.3040 h1        1 MOL      0.134888
     47 H19         8.3010   -2.9410   -3.1720 h1        1 MOL      0.134888
     48 N5          5.4800   -3.2440   -2.7750 n         1 MOL     -0.440423
     49 C16         4.1120   -2.8080   -2.8840 c3        1 MOL      0.221217
     50 C17         3.1740   -3.7870   -2.1010 c         1 MOL      0.500418
     51 O10         2.9280   -4.9360   -2.5310 o         1 MOL     -0.571219
     52 C18         3.7540   -2.8790   -4.3690 c3        1 MOL     -0.584491
     53 C19         2.2920   -2.7610   -4.5570 c         1 MOL      0.844086
     54 N6          1.5110   -3.7530   -4.8660 n         1 MOL     -0.829236
     55 O11         1.8560   -1.6630   -4.3840 o         1 MOL     -0.591844
     56 H20         5.7350   -4.1820   -3.0510 hn        1 MOL      0.269188
     57 H21         4.0300   -1.7540   -2.6090 h1        1 MOL      0.061837
     58 H22         4.1490   -3.7940   -4.8130 hc        1 MOL      0.145392
     59 H23         4.2550   -2.1120   -4.9500 hc        1 MOL      0.145392
     60 H24         1.8990   -4.6860   -4.7510 hn        1 MOL      0.386535
     61 H25         0.5150   -3.6420   -4.7610 hn        1 MOL      0.386535
     62 N7          2.5660   -3.3550   -0.9920 n         1 MOL     -0.440019
     63 C20         1.4760   -4.0880   -0.2940 c3        1 MOL      0.082674
     64 C21         1.2280   -3.4590    1.0720 c         1 MOL      0.500616
     65 O12         1.9400   -2.5390    1.4480 o         1 MOL     -0.498098
     66 H26         3.0470   -2.6390   -0.4730 hn        1 MOL      0.271070
     67 H27         1.7940   -5.1250   -0.2860 h1        1 MOL      0.084217
     68 H28         0.6320   -4.0210   -0.9720 h1        1 MOL      0.084217
     69 N8          0.2120   -3.8920    1.8960 n         1 MOL     -0.446689
     70 C22        -0.9400   -4.8590    1.6400 c3        1 MOL     -0.151391
     71 C23        -2.2720   -4.0860    1.7460 c         1 MOL      0.609950
     72 O13        -3.3490   -4.6420    1.4140 o         1 MOL     -0.563086
     73 C24        -0.8400   -6.0710    2.6210 c3        1 MOL      0.386156
     74 C25         0.4470   -6.8600    2.3830 c3        1 MOL     -0.362982
     75 O14        -0.9190   -5.7140    4.0180 oh        1 MOL     -0.617347
     76 H29         0.2830   -3.4710    2.8060 hn        1 MOL      0.320553
     77 H30        -0.8510   -5.2490    0.6310 h1        1 MOL      0.098816
     78 H31        -1.6840   -6.7330    2.4810 h1        1 MOL      0.004616
     79 H32        -1.1880   -6.5090    4.4650 ho        1 MOL      0.400654
     80 H33         1.3360   -6.3200    2.7110 hc        1 MOL      0.083505
     81 H34         0.3800   -7.8490    2.8300 hc        1 MOL      0.083505
     82 H35         0.5740   -6.9450    1.2990 hc        1 MOL      0.083505
     83 N9         -2.2180   -2.8010    2.1940 n         1 MOL     -0.445399
     84 C26        -3.4320   -1.9640    2.3400 c3        1 MOL      0.051561
     85 C27        -3.3560   -0.7350    1.3920 c         1 MOL      0.456673
     86 O15        -2.3800    0.0200    1.4150 o         1 MOL     -0.543309
     87 C28        -3.6580   -1.5140    3.7900 c3        1 MOL      0.072241
     88 C29        -3.9010   -2.7280    4.8070 c3        1 MOL     -0.141846
     89 C30        -4.6690   -0.4320    4.0750 c3        1 MOL     -0.303878
     90 C31        -5.2850   -3.2950    4.6340 c3        1 MOL     -0.190388
     91 H36        -1.3200   -2.3860    2.4010 hn        1 MOL      0.269931
     92 H37        -4.2090   -2.6580    2.0300 h1        1 MOL      0.198299
     93 H38        -2.7050   -1.0440    4.0350 hc        1 MOL     -0.009749
     94 H39        -3.7430   -2.3490    5.8150 hc        1 MOL      0.044963
     95 H40        -3.2150   -3.5580    4.6450 hc        1 MOL      0.044963
     96 H41        -5.4930   -0.6270    3.3820 hc        1 MOL      0.123066
     97 H42        -4.9370   -0.4580    5.1360 hc        1 MOL      0.123066
     98 H43        -4.2990    0.5440    3.7550 hc        1 MOL      0.123066
     99 H44        -5.4730   -3.6730    3.6260 hc        1 MOL      0.044941
    100 H45        -5.5680   -4.0170    5.3910 hc        1 MOL      0.044941
    101 H46        -6.0200   -2.5330    4.8550 hc        1 MOL      0.044941
    102 N10        -4.3880   -0.3880    0.5880 n         1 MOL     -0.447578
    103 C32        -5.6720   -1.2200    0.3620 c3        1 MOL     -0.022021
    104 C33        -6.7670   -0.2850   -0.2010 c         1 MOL      0.504272
    105 O16        -6.5700    0.7660   -0.8740 o         1 MOL     -0.497472
    106 C34        -5.3950   -2.3430   -0.6210 c3        1 MOL     -0.083626
    107 C35        -4.8660   -1.7660   -1.9440 c         1 MOL      0.719108
    108 O17        -3.6050   -1.5100   -2.0450 o         1 MOL     -0.718470
    109 O18        -5.6080   -1.7440   -2.9200 o         1 MOL     -0.718470
    110 H47        -4.1630    0.3710   -0.0440 hn        1 MOL      0.322689
    111 H48        -6.0480   -1.5730    1.3180 h1        1 MOL      0.078756
    112 H49        -6.3060   -2.9170   -0.7470 hc        1 MOL     -0.014179
    113 H50        -4.6680   -3.0250   -0.1580 hc        1 MOL     -0.014179
    114 N11        -8.0000   -0.7910   -0.0020 n         1 MOL     -0.549477
    115 C36        -9.2290   -0.3310   -0.6760 c3        1 MOL      0.490846
    116 C37       -10.2750    0.1880    0.3540 c         1 MOL      0.047951
    117 O19       -10.3860   -0.4990    1.3140 o         1 MOL     -0.432328
    118 C38        -9.7680   -1.4610   -1.5670 c3        1 MOL     -0.073369
    119 C39       -10.7880   -0.9920   -2.6550 ca        1 MOL      0.034759
    120 C40       -12.0800   -0.6460   -2.1650 ca        1 MOL     -0.189283
    121 C41       -10.4000   -0.6270   -3.9160 ca        1 MOL     -0.189283
    122 C42       -12.9430   -0.0240   -3.0800 ca        1 MOL     -0.092638
    123 C43       -11.2290   -0.0640   -4.8060 ca        1 MOL     -0.092638
    124 C44       -12.4960    0.2390   -4.4170 ca        1 MOL     -0.129416
    125 H51        -8.2130   -1.5710    0.6120 hn        1 MOL      0.308319
    126 H52        -8.9810    0.4520   -1.3930 h1        1 MOL     -0.008199
    127 H53       -10.1350   -2.2620   -0.9280 hc        1 MOL      0.021861
    128 H54        -8.8980   -1.8830   -2.0680 hc        1 MOL      0.021861
    129 H55       -12.3640   -1.0340   -1.1980 ha        1 MOL      0.156659
    130 H56        -9.4140   -0.9100   -4.2540 ha        1 MOL      0.156659
    131 H57       -13.9710    0.2310   -2.8850 ha        1 MOL      0.104637
    132 H58       -10.9400   -0.0280   -5.8490 ha        1 MOL      0.104637
    133 H59       -13.2020    0.6030   -5.1510 ha        1 MOL      0.081915
    134 N12       -10.9150    1.3330    0.0790 n         1 MOL      0.142545
    135 C45       -10.6080    2.2830   -0.9830 c3        1 MOL     -0.404216
    136 C46        -9.4090    3.1910   -0.7180 c         1 MOL      0.741550
    137 O20        -8.7400    3.5980   -1.6960 o         1 MOL     -0.609662
    138 C47       -11.9280    2.9590   -1.1910 c3        1 MOL     -0.021065
    139 C48       -12.4400    3.1540    0.2050 c3        1 MOL      0.012664
    140 C49       -12.1660    1.7610    0.7810 c3        1 MOL     -0.203460
    141 H60       -10.4590    1.7540   -1.9250 h1        1 MOL      0.188993
    142 H61       -11.6860    3.9680   -1.5260 hc        1 MOL      0.033883
    143 H62       -12.6310    2.3550   -1.7730 hc        1 MOL      0.033883
    144 H63       -11.8410    3.8980    0.7360 hc        1 MOL      0.007939
    145 H64       -13.5050    3.3680    0.0620 hc        1 MOL      0.007939
    146 H65       -11.9950    1.8600    1.8580 h1        1 MOL      0.092954
    147 H66       -12.9990    1.0900    0.5710 h1        1 MOL      0.092954
    148 N13        -9.0380    3.4940    0.5060 n         1 MOL     -0.435834
    149 C50        -7.7550    4.0610    0.7910 c3        1 MOL      0.105081
    150 C51        -7.5520    5.5350    0.5110 c         1 MOL      0.398516
    151 O21        -8.2170    6.3570    1.1790 o         1 MOL     -0.573723
    152 C52        -7.3780    3.7700    2.2380 c3        1 MOL      0.024372
    153 C53        -7.4050    2.2480    2.5990 c3        1 MOL     -0.214120
    154 C54        -7.4280    1.9350    4.1240 c         1 MOL      0.733241
    155 O22        -7.0360    2.7400    4.9830 o         1 MOL     -0.724183
    156 O23        -7.8830    0.8040    4.4920 o         1 MOL     -0.724183
    157 H67        -9.6600    3.2290    1.2460 hn        1 MOL      0.369443
    158 H68        -6.9450    3.6530    0.1740 h1        1 MOL      0.083316
    159 H69        -8.0990    4.1790    2.9440 hc        1 MOL      0.008626
    160 H70        -6.4050    4.1600    2.5330 hc        1 MOL      0.008626
    161 H71        -6.4970    1.8020    2.1950 hc        1 MOL      0.003508
    162 H72        -8.2970    1.7480    2.2060 hc        1 MOL      0.003508
    163 N14        -6.7730    5.9910   -0.4890 n         1 MOL     -0.316857
    164 C55        -5.8700    5.2370   -1.4740 c3        1 MOL     -0.227851
    165 H73        -6.4350    5.0020   -2.3760 h1        1 MOL      0.116092
    166 H74        -5.0140    5.8600   -1.7340 h1        1 MOL      0.116092
    167 H75        -5.5220    4.3130   -1.0140 h1        1 MOL      0.116092
    168 H76        -6.8330    6.9930   -0.5940 hn        1 MOL      0.253166
    169 Ca1         6.7450    1.0550   -1.2960 Ca        1 MOL      1.735914
    170 O24         4.2620    0.6740   -0.6030 oh        1 MOL     -0.793837
    171 H77         3.8630    0.8560    0.2430 ho        1 MOL      0.393287
    172 H78         3.5980    0.9510   -1.2420 ho        1 MOL      0.393287
    173 O25         5.3450    3.4580   -2.1390 oh        1 MOL     -0.793837
    174 H79         5.6470    3.7980   -2.9880 ho        1 MOL      0.393287
    175 H80         4.4440    3.7730   -2.0550 ho        1 MOL      0.393287
    176 O26         5.9610    2.6450    0.6470 oh        1 MOL     -0.793837
    177 H81         6.1980    2.1250    1.4160 ho        1 MOL      0.393287
    178 H82         5.1180    3.0340    0.8650 ho        1 MOL      0.393287
    179 O27         5.3880    0.9340   -3.4960 oh        1 MOL     -0.793837
    180 H83         5.4790    0.9690   -4.4440 ho        1 MOL      0.393287
    181 H84         4.4390    0.8110   -3.3540 ho        1 MOL      0.393287
@<TRIPOS>BOND
     1    1    2 1   
     2    1    4 1   
     3    1    5 1   
     4    1    6 1   
     5    2    3 2   
     6    2    7 1   
     7    7    8 1   
     8    7   15 1   
     9    8    9 1   
    10    8   11 1   
    11    8   16 1   
    12    9   10 2   
    13    9   19 1   
    14   11   12 1   
    15   11   17 1   
    16   11   18 1   
    17   12   13 1   
    18   12   14 1   
    19   19   20 1   
    20   19   24 1   
    21   20   21 1   
    22   20   23 1   
    23   20   25 1   
    24   21   22 2   
    25   21   29 1   
    26   23   26 1   
    27   23   27 1   
    28   23   28 1   
    29   29   30 1   
    30   29   37 1   
    31   30   31 1   
    32   30   33 1   
    33   30   38 1   
    34   31   32 2   
    35   31   41 1   
    36   33   34 1   
    37   33   39 1   
    38   33   40 1   
    39   34   35 1   
    40   34   36 1   
    41   41   42 1   
    42   41   45 1   
    43   42   43 1   
    44   42   46 1   
    45   42   47 1   
    46   43   44 2   
    47   43   48 1   
    48   48   49 1   
    49   48   56 1   
    50   49   50 1   
    51   49   52 1   
    52   49   57 1   
    53   50   51 2   
    54   50   62 1   
    55   52   53 1   
    56   52   58 1   
    57   52   59 1   
    58   53   54 1   
    59   53   55 2   
    60   54   60 1   
    61   54   61 1   
    62   62   63 1   
    63   62   66 1   
    64   63   64 1   
    65   63   67 1   
    66   63   68 1   
    67   64   65 2   
    68   64   69 1   
    69   69   70 1   
    70   69   76 1   
    71   70   71 1   
    72   70   73 1   
    73   70   77 1   
    74   71   72 2   
    75   71   83 1   
    76   73   74 1   
    77   73   75 1   
    78   73   78 1   
    79   74   80 1   
    80   74   81 1   
    81   74   82 1   
    82   75   79 1   
    83   83   84 1   
    84   83   91 1   
    85   84   85 1   
    86   84   87 1   
    87   84   92 1   
    88   85   86 2   
    89   85  102 1   
    90   87   88 1   
    91   87   89 1   
    92   87   93 1   
    93   88   90 1   
    94   88   94 1   
    95   88   95 1   
    96   89   96 1   
    97   89   97 1   
    98   89   98 1   
    99   90   99 1   
   100   90  100 1   
   101   90  101 1   
   102  102  103 1   
   103  102  110 1   
   104  103  104 1   
   105  103  106 1   
   106  103  111 1   
   107  104  105 2   
   108  104  114 1   
   109  106  107 1   
   110  106  112 1   
   111  106  113 1   
   112  107  108 1   
   113  107  109 1   
   114  114  115 1   
   115  114  125 1   
   116  115  116 1   
   117  115  118 1   
   118  115  126 1   
   119  116  117 2   
   120  116  134 1   
   121  118  119 1   
   122  118  127 1   
   123  118  128 1   
   124  119  120 ar  
   125  119  121 ar  
   126  120  122 ar  
   127  120  129 1   
   128  121  123 ar  
   129  121  130 1   
   130  122  124 ar  
   131  122  131 1   
   132  123  124 ar  
   133  123  132 1   
   134  124  133 1   
   135  134  135 1   
   136  134  140 1   
   137  135  136 1   
   138  135  138 1   
   139  135  141 1   
   140  136  137 2   
   141  136  148 1   
   142  138  139 1   
   143  138  142 1   
   144  138  143 1   
   145  139  140 1   
   146  139  144 1   
   147  139  145 1   
   148  140  146 1   
   149  140  147 1   
   150  148  149 1   
   151  148  157 1   
   152  149  150 1   
   153  149  152 1   
   154  149  158 1   
   155  150  151 2   
   156  150  163 1   
   157  152  153 1   
   158  152  159 1   
   159  152  160 1   
   160  153  154 1   
   161  153  161 1   
   162  153  162 1   
   163  154  155 1   
   164  154  156 1   
   165  163  164 1   
   166  163  168 1   
   167  164  165 1   
   168  164  166 1   
   169  164  167 1   
   170  170  171 1   
   171  170  172 1   
   172  173  174 1   
   173  173  175 1   
   174  176  177 1   
   175  176  178 1   
   176  179  180 1   
   177  179  181 1   
@<TRIPOS>SUBSTRUCTURE
     1 MOL         1 TEMP              0 ****  ****    0 ROOT
