@<TRIPOS>MOLECULE
MOL
  181   177     1     0     0
SMALL
resp


@<TRIPOS>ATOM
      1 C1          5.2010   -5.1310    5.3140 c3        1 MOL     -0.352130
      2 C2          4.6370   -4.1800    4.2220 c         1 MOL      0.697987
      3 O1          3.7730   -3.3430    4.5240 o         1 MOL     -0.566232
      4 H1          6.1140   -4.7040    5.7300 hc        1 MOL      0.080030
      5 H2          4.4630   -5.2520    6.1070 hc        1 MOL      0.080030
      6 H3          5.4230   -6.1020    4.8720 hc        1 MOL      0.080030
      7 N1          5.0780   -4.2240    2.9440 n         1 MOL     -0.558101
      8 C3          6.1730   -5.0540    2.4130 c3        1 MOL     -0.024682
      9 C4          5.7520   -5.4610    1.0090 c         1 MOL      0.618159
     10 O2          4.5850   -5.7210    0.7510 o         1 MOL     -0.468047
     11 C5          7.4410   -4.0960    2.5620 c3        1 MOL     -0.209328
     12 C6          7.3670   -2.7250    1.8500 c         1 MOL      0.750505
     13 O3          7.4240   -2.7760    0.6110 o         1 MOL     -0.747545
     14 O4          7.0860   -1.6870    2.4520 o         1 MOL     -0.747545
     15 H4          4.7860   -3.5200    2.2770 hn        1 MOL      0.457602
     16 H5          6.3580   -5.9770    2.9720 h1        1 MOL      0.103586
     17 H6          8.3370   -4.6650    2.3090 hc        1 MOL      0.025008
     18 H7          7.6390   -3.8820    3.6060 hc        1 MOL      0.025008
     19 N2          6.7490   -5.7630    0.1110 n         1 MOL     -0.738243
     20 C7          6.4760   -6.0810   -1.3340 c3        1 MOL      0.479271
     21 C8          5.5580   -5.1130   -2.0930 c         1 MOL      0.295629
     22 O5          4.9630   -5.4850   -3.1350 o         1 MOL     -0.517014
     23 C9          6.1130   -7.5710   -1.6240 c3        1 MOL     -0.324692
     24 H8          7.6520   -5.3710    0.3510 hn        1 MOL      0.339061
     25 H9          7.4600   -5.9960   -1.8010 h1        1 MOL     -0.026971
     26 H10         6.2170   -7.6770   -2.7030 hc        1 MOL      0.079717
     27 H11         6.7140   -8.3160   -1.0980 hc        1 MOL      0.079717
     28 H12         5.0810   -7.7350   -1.3240 hc        1 MOL      0.079717
     29 N3          5.5100   -3.8070   -1.7170 n         1 MOL     -0.154649
     30 C10         4.7070   -2.6780   -2.3940 c3        1 MOL      0.049187
     31 C11         5.5770   -1.3720   -2.6640 c         1 MOL      0.347347
     32 O6          6.6860   -1.2840   -2.1330 o         1 MOL     -0.485960
     33 C12         3.4920   -2.4490   -1.4610 c3        1 MOL     -0.109298
     34 C13         3.9350   -2.0780   -0.0280 c         1 MOL      0.809097
     35 O7          4.6980   -1.0770    0.1480 o         1 MOL     -0.749377
     36 O8          3.5750   -2.6970    0.9680 o         1 MOL     -0.749377
     37 H13         6.1380   -3.4890   -0.9800 hn        1 MOL      0.076514
     38 H14         4.2770   -2.9590   -3.3550 h1        1 MOL      0.047523
     39 H15         2.7840   -3.2730   -1.4550 hc        1 MOL      0.052985
     40 H16         3.0030   -1.5190   -1.7530 hc        1 MOL      0.052985
     41 N4          5.0590   -0.3690   -3.3990 n         1 MOL     -0.286598
     42 C14         5.7540    0.9180   -3.7100 c3        1 MOL     -0.391268
     43 C15         5.7660    1.9080   -2.5620 c         1 MOL      0.833750
     44 O9          5.7990    1.5750   -1.3650 o         1 MOL     -0.753555
     45 H17         4.0660   -0.4550   -3.6030 hn        1 MOL      0.303767
     46 H18         5.2650    1.3820   -4.5740 h1        1 MOL      0.156978
     47 H19         6.8010    0.6930   -3.9340 h1        1 MOL      0.156978
     48 N5          5.6560    3.1770   -2.9670 n         1 MOL     -0.485801
     49 C16         5.6600    4.3830   -2.1120 c3        1 MOL      0.087075
     50 C17         4.3260    4.4350   -1.3190 c         1 MOL      0.485166
     51 O10         3.3050    4.9040   -1.8410 o         1 MOL     -0.487111
     52 C18         5.7960    5.5500   -3.0990 c3        1 MOL     -0.273898
     53 C19         7.1470    5.5350   -3.7330 c         1 MOL      0.667922
     54 N6          7.1160    5.2860   -5.0380 n         1 MOL     -0.802474
     55 O11         8.1940    5.5680   -3.1310 o         1 MOL     -0.562603
     56 H20         5.8020    3.2690   -3.9630 hn        1 MOL      0.254733
     57 H21         6.4440    4.3590   -1.3550 h1        1 MOL      0.016698
     58 H22         5.7700    6.4490   -2.4890 hc        1 MOL      0.114921
     59 H23         4.9970    5.5460   -3.8450 hc        1 MOL      0.114921
     60 H24         6.3360    5.5600   -5.6140 hn        1 MOL      0.366085
     61 H25         8.0480    5.2380   -5.4360 hn        1 MOL      0.366085
     62 N7          4.2840    4.0830   -0.0760 n         1 MOL     -0.129221
     63 C20         3.0590    4.1620    0.7760 c3        1 MOL     -0.543256
     64 C21         2.5170    5.5730    0.9530 c         1 MOL      0.874670
     65 O12         3.1130    6.5270    0.4650 o         1 MOL     -0.619400
     66 H26         5.1420    3.9700    0.4530 hn        1 MOL      0.198066
     67 H27         3.3710    3.7090    1.7160 h1        1 MOL      0.202661
     68 H28         2.2290    3.5760    0.3760 h1        1 MOL      0.202661
     69 N8          1.5470    5.9240    1.7620 n         1 MOL     -0.648285
     70 C22         0.5850    5.0420    2.4460 c3        1 MOL      0.082349
     71 C23        -0.3020    4.3090    1.5040 c         1 MOL      0.428782
     72 O13        -0.6780    4.8960    0.4640 o         1 MOL     -0.496851
     73 C24        -0.2510    5.8590    3.4620 c3        1 MOL      0.505968
     74 C25        -0.9710    5.0120    4.3970 c3        1 MOL     -0.318570
     75 O14         0.5380    6.7690    4.2780 oh        1 MOL     -0.682036
     76 H29         1.4470    6.9170    1.9380 hn        1 MOL      0.321376
     77 H30         1.0570    4.2780    3.0620 h1        1 MOL      0.046405
     78 H31        -0.9690    6.5440    3.0140 h1        1 MOL     -0.031283
     79 H32        -0.0580    7.4680    4.5470 ho        1 MOL      0.391888
     80 H33        -0.3130    4.3650    4.9820 hc        1 MOL      0.076147
     81 H34        -1.4410    5.6510    5.1360 hc        1 MOL      0.076147
     82 H35        -1.7930    4.4750    3.9330 hc        1 MOL      0.076147
     83 N9         -0.7500    3.0820    1.8620 n         1 MOL     -0.474932
     84 C26        -1.8770    2.3580    1.2930 c3        1 MOL     -0.030800
     85 C27        -2.7870    1.7480    2.3250 c         1 MOL      0.555300
     86 O15        -2.3770    1.3090    3.3960 o         1 MOL     -0.580165
     87 C28        -1.4390    1.2900    0.1700 c3        1 MOL     -0.000404
     88 C29        -0.5980    0.2400    0.9380 c3        1 MOL     -0.096993
     89 C30        -0.5350    1.8630   -0.9890 c3        1 MOL     -0.258205
     90 C31        -0.2990   -0.9640    0.0430 c3        1 MOL     -0.187459
     91 H36        -0.2930    2.5890    2.6150 hn        1 MOL      0.259420
     92 H37        -2.4270    3.1380    0.7730 h1        1 MOL      0.173363
     93 H38        -2.2740    0.7680   -0.2830 hc        1 MOL      0.125614
     94 H39        -1.1230   -0.1870    1.7890 hc        1 MOL      0.056394
     95 H40         0.2740    0.7060    1.4030 hc        1 MOL      0.056394
     96 H41         0.5110    2.0270   -0.7490 hc        1 MOL      0.072779
     97 H42        -0.6360    1.1900   -1.8430 hc        1 MOL      0.072779
     98 H43        -0.9790    2.8290   -1.2170 hc        1 MOL      0.072779
     99 H44         0.4070   -0.7440   -0.7610 hc        1 MOL      0.061907
    100 H45         0.1810   -1.7850    0.5880 hc        1 MOL      0.061907
    101 H46        -1.1960   -1.3940   -0.4080 hc        1 MOL      0.061907
    102 N10        -4.0560    1.5240    1.9880 n         1 MOL     -0.562962
    103 C32        -4.7640    1.9090    0.7910 c3        1 MOL      0.655442
    104 C33        -6.0190    1.0850    0.5620 c         1 MOL      0.428143
    105 O16        -6.4110    0.4300    1.4840 o         1 MOL     -0.505517
    106 C34        -5.1660    3.3950    0.8810 c3        1 MOL     -0.132193
    107 C35        -5.9550    3.8610    2.1210 c         1 MOL      0.636755
    108 O17        -6.5030    5.0220    2.0870 o         1 MOL     -0.683487
    109 O18        -6.2700    3.0850    3.0590 o         1 MOL     -0.683487
    110 H47        -4.5810    0.9810    2.6500 hn        1 MOL      0.302410
    111 H48        -4.1350    1.7610   -0.0880 h1        1 MOL     -0.183795
    112 H49        -5.7330    3.6690   -0.0100 hc        1 MOL     -0.046242
    113 H50        -4.2500    3.9730    0.7910 hc        1 MOL     -0.046242
    114 N11        -6.5940    1.1150   -0.6060 n         1 MOL     -0.624001
    115 C36        -7.9220    0.5250   -0.8220 c3        1 MOL      0.630030
    116 C37        -7.9460   -0.2340   -2.1750 c         1 MOL      0.191745
    117 O19        -7.5140    0.3060   -3.1720 o         1 MOL     -0.493327
    118 C38        -9.0520    1.5780   -0.5990 c3        1 MOL     -0.491185
    119 C39       -10.4650    1.0900   -0.6940 ca        1 MOL      0.237490
    120 C40       -11.2080    1.2350   -1.9260 ca        1 MOL     -0.200697
    121 C41       -11.1020    0.6540    0.4790 ca        1 MOL     -0.200697
    122 C42       -12.4900    0.6600   -2.0110 ca        1 MOL     -0.111919
    123 C43       -12.3960    0.1080    0.4040 ca        1 MOL     -0.111919
    124 C44       -13.0670    0.0750   -0.8710 ca        1 MOL     -0.159509
    125 H51        -6.2260    1.8230   -1.2200 hn        1 MOL      0.309686
    126 H52        -7.9330   -0.2360   -0.0410 h1        1 MOL     -0.068093
    127 H53        -8.9680    2.4020   -1.3080 hc        1 MOL      0.148037
    128 H54        -8.8870    1.9200    0.4190 hc        1 MOL      0.148037
    129 H55       -10.7850    1.5630   -2.8630 ha        1 MOL      0.140461
    130 H56       -10.5730    0.5090    1.4010 ha        1 MOL      0.140461
    131 H57       -13.0200    0.5580   -2.9370 ha        1 MOL      0.109271
    132 H58       -12.7310   -0.4780    1.2380 ha        1 MOL      0.109271
    133 H59       -13.9940   -0.4710   -0.9970 ha        1 MOL      0.096886
    134 N12        -8.7070   -1.3550   -2.2530 n         1 MOL      0.137258
    135 C45        -9.2610   -2.2090   -1.1310 c3        1 MOL      0.016392
    136 C46        -8.2450   -2.8000   -0.1520 c         1 MOL      0.431007
    137 O20        -8.5630   -2.9230    1.0090 o         1 MOL     -0.533307
    138 C47        -9.9680   -3.3750   -1.9200 c3        1 MOL     -0.009179
    139 C48       -10.4400   -2.6470   -3.1660 c3        1 MOL      0.061251
    140 C49        -9.1790   -1.8650   -3.5150 c3        1 MOL     -0.254576
    141 H60        -9.9940   -1.5900   -0.6050 h1        1 MOL      0.047762
    142 H61        -9.2980   -4.1880   -2.1950 hc        1 MOL      0.014494
    143 H62       -10.8560   -3.6860   -1.3630 hc        1 MOL      0.014494
    144 H63       -10.7090   -3.3660   -3.9420 hc        1 MOL     -0.010947
    145 H64       -11.2370   -1.9180   -2.9980 hc        1 MOL     -0.010947
    146 H65        -8.4060   -2.4900   -3.9640 h1        1 MOL      0.082069
    147 H66        -9.3900   -1.0130   -4.1690 h1        1 MOL      0.082069
    148 N13        -7.0200   -3.0800   -0.6410 n         1 MOL     -0.501653
    149 C50        -5.9020   -3.3270    0.2500 c3        1 MOL      0.574369
    150 C51        -5.9560   -4.7330    0.9340 c         1 MOL      0.263144
    151 O21        -5.6100   -5.7710    0.3210 o         1 MOL     -0.544578
    152 C52        -4.6070   -3.1250   -0.6170 c3        1 MOL     -0.491782
    153 C53        -4.3800   -1.6330   -0.9160 c3        1 MOL      0.108597
    154 C54        -3.3660   -1.3720   -2.0380 c         1 MOL      0.671681
    155 O22        -3.3020   -0.1970   -2.4000 o         1 MOL     -0.713030
    156 O23        -2.6400   -2.2600   -2.5170 o         1 MOL     -0.713030
    157 H67        -6.8740   -2.9880   -1.6380 hn        1 MOL      0.293061
    158 H68        -5.8660   -2.5480    1.0040 h1        1 MOL     -0.021109
    159 H69        -4.6200   -3.5960   -1.5900 hc        1 MOL      0.115610
    160 H70        -3.7060   -3.3020   -0.0230 hc        1 MOL      0.115610
    161 H71        -3.9580   -1.2180    0.0040 hc        1 MOL     -0.030630
    162 H72        -5.3300   -1.1680   -1.1750 hc        1 MOL     -0.030630
    163 N14        -6.5170   -4.9210    2.1450 n         1 MOL     -0.257693
    164 C55        -6.9270   -3.9190    3.1670 c3        1 MOL     -0.169969
    165 H73        -7.9530   -4.1160    3.4780 h1        1 MOL      0.086782
    166 H74        -6.2670   -3.9900    4.0310 h1        1 MOL      0.086782
    167 H75        -6.8630   -2.9180    2.7410 h1        1 MOL      0.086782
    168 H76        -6.6880   -5.9070    2.3050 hn        1 MOL      0.242072
    169 Ca1         7.0600   -0.0880    0.2140 Ca        1 MOL      1.779665
    170 O24         9.3600   -0.9350   -0.7640 oh        1 MOL     -0.830337
    171 H77         9.6340   -1.0350   -1.6700 ho        1 MOL      0.406172
    172 H78        10.0100   -1.4200   -0.2500 ho        1 MOL      0.406172
    173 O25         8.6460    2.2130   -0.4510 oh        1 MOL     -0.830337
    174 H79         8.9780    2.3810   -1.3300 ho        1 MOL      0.406172
    175 H80         9.1400    2.7990    0.1110 ho        1 MOL      0.406172
    176 O26         9.2880    0.1340    2.1660 oh        1 MOL     -0.830337
    177 H81         8.8310    0.7780    2.7100 ho        1 MOL      0.406172
    178 H82         9.3860   -0.6310    2.7420 ho        1 MOL      0.406172
    179 O27         6.5710    1.9760    1.7470 oh        1 MOL     -0.830337
    180 H83         6.0840    2.2190    2.5310 ho        1 MOL      0.406172
    181 H84         6.9420    2.8000    1.4260 ho        1 MOL      0.406172
@<TRIPOS>BOND
     1    1    2 1   
     2    1    4 1   
     3    1    5 1   
     4    1    6 1   
     5    2    3 2   
     6    2    7 1   
     7    7    8 1   
     8    7   15 1   
     9    8    9 1   
    10    8   11 1   
    11    8   16 1   
    12    9   10 2   
    13    9   19 1   
    14   11   12 1   
    15   11   17 1   
    16   11   18 1   
    17   12   13 1   
    18   12   14 1   
    19   19   20 1   
    20   19   24 1   
    21   20   21 1   
    22   20   23 1   
    23   20   25 1   
    24   21   22 2   
    25   21   29 1   
    26   23   26 1   
    27   23   27 1   
    28   23   28 1   
    29   29   30 1   
    30   29   37 1   
    31   30   31 1   
    32   30   33 1   
    33   30   38 1   
    34   31   32 2   
    35   31   41 1   
    36   33   34 1   
    37   33   39 1   
    38   33   40 1   
    39   34   35 1   
    40   34   36 1   
    41   41   42 1   
    42   41   45 1   
    43   42   43 1   
    44   42   46 1   
    45   42   47 1   
    46   43   44 2   
    47   43   48 1   
    48   48   49 1   
    49   48   56 1   
    50   49   50 1   
    51   49   52 1   
    52   49   57 1   
    53   50   51 2   
    54   50   62 1   
    55   52   53 1   
    56   52   58 1   
    57   52   59 1   
    58   53   54 1   
    59   53   55 2   
    60   54   60 1   
    61   54   61 1   
    62   62   63 1   
    63   62   66 1   
    64   63   64 1   
    65   63   67 1   
    66   63   68 1   
    67   64   65 2   
    68   64   69 1   
    69   69   70 1   
    70   69   76 1   
    71   70   71 1   
    72   70   73 1   
    73   70   77 1   
    74   71   72 2   
    75   71   83 1   
    76   73   74 1   
    77   73   75 1   
    78   73   78 1   
    79   74   80 1   
    80   74   81 1   
    81   74   82 1   
    82   75   79 1   
    83   83   84 1   
    84   83   91 1   
    85   84   85 1   
    86   84   87 1   
    87   84   92 1   
    88   85   86 2   
    89   85  102 1   
    90   87   88 1   
    91   87   89 1   
    92   87   93 1   
    93   88   90 1   
    94   88   94 1   
    95   88   95 1   
    96   89   96 1   
    97   89   97 1   
    98   89   98 1   
    99   90   99 1   
   100   90  100 1   
   101   90  101 1   
   102  102  103 1   
   103  102  110 1   
   104  103  104 1   
   105  103  106 1   
   106  103  111 1   
   107  104  105 2   
   108  104  114 1   
   109  106  107 1   
   110  106  112 1   
   111  106  113 1   
   112  107  108 1   
   113  107  109 1   
   114  114  115 1   
   115  114  125 1   
   116  115  116 1   
   117  115  118 1   
   118  115  126 1   
   119  116  117 2   
   120  116  134 1   
   121  118  119 1   
   122  118  127 1   
   123  118  128 1   
   124  119  120 ar  
   125  119  121 ar  
   126  120  122 ar  
   127  120  129 1   
   128  121  123 ar  
   129  121  130 1   
   130  122  124 ar  
   131  122  131 1   
   132  123  124 ar  
   133  123  132 1   
   134  124  133 1   
   135  134  135 1   
   136  134  140 1   
   137  135  136 1   
   138  135  138 1   
   139  135  141 1   
   140  136  137 2   
   141  136  148 1   
   142  138  139 1   
   143  138  142 1   
   144  138  143 1   
   145  139  140 1   
   146  139  144 1   
   147  139  145 1   
   148  140  146 1   
   149  140  147 1   
   150  148  149 1   
   151  148  157 1   
   152  149  150 1   
   153  149  152 1   
   154  149  158 1   
   155  150  151 2   
   156  150  163 1   
   157  152  153 1   
   158  152  159 1   
   159  152  160 1   
   160  153  154 1   
   161  153  161 1   
   162  153  162 1   
   163  154  155 1   
   164  154  156 1   
   165  163  164 1   
   166  163  168 1   
   167  164  165 1   
   168  164  166 1   
   169  164  167 1   
   170  170  171 1   
   171  170  172 1   
   172  173  174 1   
   173  173  175 1   
   174  176  177 1   
   175  176  178 1   
   176  179  180 1   
   177  179  181 1   
@<TRIPOS>SUBSTRUCTURE
     1 MOL         1 TEMP              0 ****  ****    0 ROOT
