@<TRIPOS>MOLECULE
MOL
  192   187     1     0     0
SMALL
resp


@<TRIPOS>ATOM
      1 C1          9.2990    0.8360    1.5970 c3        1 MOL     -0.408022
      2 C2          8.1710    0.3870    0.6290 c         1 MOL      0.731009
      3 O1          6.9610    0.4220    0.8860 o         1 MOL     -0.704509
      4 H1          8.8710    1.0530    2.5760 hc        1 MOL      0.098085
      5 H2         10.0350    0.0380    1.6920 hc        1 MOL      0.098085
      6 H3          9.7810    1.7310    1.2050 hc        1 MOL      0.098085
      7 N1          8.6090   -0.1180   -0.5030 n         1 MOL     -0.432663
      8 C3          7.8120   -0.5560   -1.6540 c3        1 MOL     -0.013422
      9 C4          7.2340   -1.9670   -1.3720 c         1 MOL      0.518845
     10 O2          7.1440   -2.8130   -2.2540 o         1 MOL     -0.406150
     11 C5          8.7090   -0.4520   -2.9340 c3        1 MOL     -0.215797
     12 C6          9.9050   -1.4760   -3.0380 c         1 MOL      0.678815
     13 O3         10.3910   -1.7220   -1.9320 o         1 MOL     -0.641245
     14 O4         10.1020   -2.1210   -4.0480 o         1 MOL     -0.641245
     15 H4          9.5930   -0.2470   -0.6940 hn        1 MOL      0.212074
     16 H5          6.9350    0.0170   -1.9570 h1        1 MOL      0.106574
     17 H6          9.1590    0.5340   -3.1080 hc        1 MOL      0.056701
     18 H7          8.0380   -0.7200   -3.7480 hc        1 MOL      0.056701
     19 N2          6.8560   -2.1610   -0.0530 n         1 MOL     -0.447349
     20 C7          6.3030   -3.4040    0.5920 c3        1 MOL      0.072841
     21 C8          4.8380   -3.7100    0.3080 c         1 MOL      0.449633
     22 O5          4.5880   -4.8030   -0.2210 o         1 MOL     -0.548232
     23 C9          6.5620   -3.5330    2.1290 c3        1 MOL     -0.077373
     24 C10         7.9730   -3.5560    2.5710 c3        1 MOL      0.077838
     25 C11         8.1960   -3.5150    4.0360 c3        1 MOL      0.037989
     26 C12         9.6660   -3.4360    4.3720 c3        1 MOL      0.122547
     27 N3          9.9770   -3.7930    5.8200 n4        1 MOL     -0.294875
     28 H8          7.1250   -1.4270    0.5960 hn        1 MOL      0.286528
     29 H9          6.8620   -4.1640    0.0530 h1        1 MOL      0.071979
     30 H10         6.1080   -4.4710    2.4680 hc        1 MOL      0.025986
     31 H11         5.9650   -2.7660    2.6260 hc        1 MOL      0.025986
     32 H12         8.3230   -2.5970    2.1700 hc        1 MOL     -0.000074
     33 H13         8.5260   -4.3400    2.0520 hc        1 MOL     -0.000074
     34 H14         7.7520   -4.3960    4.5050 hc        1 MOL     -0.003776
     35 H15         7.6410   -2.6460    4.4020 hc        1 MOL     -0.003776
     36 H16         9.9420   -2.3960    4.2160 hx        1 MOL      0.037865
     37 H17        10.2280   -4.0140    3.6450 hx        1 MOL      0.037865
     38 H18         9.2110   -3.9340    6.4550 hn        1 MOL      0.273748
     39 H19        10.5660   -4.6080    5.7540 hn        1 MOL      0.273748
     40 H20        10.5520   -3.0560    6.2030 hn        1 MOL      0.273748
     41 N4          3.8950   -2.8050    0.3800 n         1 MOL     -0.385546
     42 C13         3.9750   -1.4200    0.8690 c3        1 MOL      0.057946
     43 C14         4.0560   -0.3520   -0.2080 c         1 MOL      0.450997
     44 O6          3.9960   -0.7000   -1.3900 o         1 MOL     -0.479853
     45 C15         2.8310   -1.2170    1.8490 c3        1 MOL     -0.279109
     46 C16         1.4270   -1.4240    1.2810 c         1 MOL      0.795367
     47 O7          1.0970   -0.7620    0.2310 o         1 MOL     -0.763135
     48 O8          0.5750   -2.0510    1.9110 o         1 MOL     -0.763135
     49 H21         3.0910   -2.9240   -0.2290 hn        1 MOL      0.342950
     50 H22         4.8920   -1.2650    1.4400 h1        1 MOL      0.095670
     51 H23         2.9300   -0.1990    2.2360 hc        1 MOL      0.053472
     52 H24         2.8920   -1.9810    2.6270 hc        1 MOL      0.053472
     53 N5          4.1010    0.9160    0.1670 n         1 MOL     -0.311974
     54 C17         4.2020    2.1950   -0.5480 c3        1 MOL      0.006842
     55 C18         2.8190    2.7790   -0.9230 c         1 MOL      0.620870
     56 O9          1.7820    2.2520   -0.6520 o         1 MOL     -0.566668
     57 H25         3.9140    0.9950    1.1530 hn        1 MOL      0.233711
     58 H26         4.8890    2.1160   -1.3840 h1        1 MOL      0.075099
     59 H27         4.7250    2.9240    0.0770 h1        1 MOL      0.075099
     60 N6          2.8490    3.8720   -1.7150 n         1 MOL     -0.720182
     61 C19         1.7600    4.5310   -2.4380 c3        1 MOL      0.603120
     62 C20         2.1430    6.0080   -2.5410 c         1 MOL      0.351069
     63 O10         3.3190    6.3050   -2.4830 o         1 MOL     -0.501261
     64 C21         1.5980    3.9600   -3.8600 c3        1 MOL     -0.354054
     65 C22         0.9780    2.5650   -3.9090 c         1 MOL      0.727316
     66 O11        -0.1020    2.4530   -3.2600 o         1 MOL     -0.657432
     67 O12         1.4400    1.6810   -4.6810 o         1 MOL     -0.657432
     68 H28         3.7690    4.2470   -1.8770 hn        1 MOL      0.299439
     69 H29         0.8220    4.3850   -1.9060 h1        1 MOL      0.001900
     70 H30         2.5270    4.0870   -4.4220 hc        1 MOL      0.070594
     71 H31         0.9600    4.6900   -4.3630 hc        1 MOL      0.070594
     72 N7          1.1780    6.9180   -2.7170 n         1 MOL     -0.431531
     73 C23        -0.2390    6.6340   -2.5970 c3        1 MOL     -0.013489
     74 C24        -0.8250    6.3410   -1.2440 c         1 MOL      0.662277
     75 O13        -0.3540    6.7150   -0.1880 o         1 MOL     -0.551928
     76 H32         1.4680    7.8830   -2.7410 hn        1 MOL      0.324641
     77 H33        -0.4310    5.7360   -3.1740 h1        1 MOL      0.035073
     78 H34        -0.7710    7.5300   -2.9380 h1        1 MOL      0.035073
     79 N8         -1.9000    5.5700   -1.2950 n         1 MOL     -0.596924
     80 C25        -2.6930    5.0710   -0.1810 c3        1 MOL      0.098765
     81 C26        -1.8260    3.8660    0.4470 c         1 MOL      0.531838
     82 O14        -1.0780    3.1140   -0.2580 o         1 MOL     -0.729278
     83 C27        -4.0560    4.4770   -0.5880 c3        1 MOL      0.421850
     84 C28        -5.0290    5.5360   -1.0620 c3        1 MOL     -0.365729
     85 O15        -4.5590    3.6750    0.3520 oh        1 MOL     -0.619720
     86 H35        -2.0490    5.1500   -2.2050 hn        1 MOL      0.294846
     87 H36        -2.8740    5.8320    0.5800 h1        1 MOL      0.054925
     88 H37        -3.7340    3.8410   -1.4160 h1        1 MOL     -0.007291
     89 H38        -5.0220    4.2350    0.9820 ho        1 MOL      0.372295
     90 H39        -4.8360    5.8310   -2.0920 hc        1 MOL      0.098720
     91 H40        -6.0400    5.1190   -0.9660 hc        1 MOL      0.098720
     92 H41        -4.9650    6.4720   -0.5010 hc        1 MOL      0.098720
     93 N9         -1.8710    3.7450    1.7480 n         1 MOL     -0.368779
     94 C29        -1.1310    2.8970    2.7390 c3        1 MOL     -0.022976
     95 C30        -1.4410    1.4210    2.3880 c         1 MOL      0.355293
     96 O16        -0.9640    0.8430    1.4150 o         1 MOL     -0.542148
     97 C31         0.3910    3.2380    2.8180 c3        1 MOL      0.084975
     98 C32         0.5740    4.6810    3.2240 c3        1 MOL      0.030312
     99 C33         1.2000    2.3780    3.7490 c3        1 MOL     -0.473931
    100 C34         1.4760    5.3830    2.2370 c3        1 MOL     -0.089704
    101 H42        -2.2970    4.5370    2.2040 hn        1 MOL      0.237291
    102 H43        -1.5420    3.0880    3.7330 h1        1 MOL      0.068219
    103 H44         0.8550    3.0670    1.8470 hc        1 MOL      0.107096
    104 H45         0.9510    4.6990    4.2430 hc        1 MOL      0.002567
    105 H46        -0.3330    5.2660    3.3550 hc        1 MOL      0.002567
    106 H47         0.8020    2.3120    4.7540 hc        1 MOL      0.127278
    107 H48         1.2610    1.3560    3.3780 hc        1 MOL      0.127278
    108 H49         2.2260    2.7370    3.8000 hc        1 MOL      0.127278
    109 H50         1.5070    6.4540    2.4230 hc        1 MOL      0.025299
    110 H51         2.5170    5.0620    2.3380 hc        1 MOL      0.025299
    111 H52         1.1040    5.0490    1.2710 hc        1 MOL      0.025299
    112 N10        -2.3520    0.8480    3.1140 n         1 MOL     -0.126617
    113 C35        -2.7100   -0.5890    3.0060 c3        1 MOL     -0.097322
    114 C36        -4.2660   -0.7460    3.0560 c         1 MOL      0.456999
    115 O17        -4.7110   -1.8620    3.2750 o         1 MOL     -0.576790
    116 C37        -2.0430   -1.4000    4.1480 c3        1 MOL      0.344925
    117 C38        -2.4210   -1.0880    5.5570 c3        1 MOL     -0.137209
    118 O18        -0.6540   -1.1720    4.1160 oh        1 MOL     -0.655488
    119 H53        -2.8230    1.3450    3.8510 hn        1 MOL      0.200281
    120 H54        -2.3190   -1.0860    2.1170 h1        1 MOL      0.071313
    121 H55        -2.2320   -2.4630    3.9890 h1        1 MOL      0.023326
    122 H56        -0.3660   -1.3380    3.2140 ho        1 MOL      0.486038
    123 H57        -2.2450   -0.0380    5.8140 hc        1 MOL      0.024584
    124 H58        -3.5020   -1.1980    5.6810 hc        1 MOL      0.024584
    125 H59        -1.8900   -1.6720    6.2990 hc        1 MOL      0.024584
    126 N11        -5.0130    0.2220    2.7540 n         1 MOL     -0.049851
    127 C39        -6.4810    0.3570    2.5820 c3        1 MOL     -0.298088
    128 C40        -6.9370   -0.3910    1.3370 c         1 MOL      0.666399
    129 O19        -7.5910    0.1040    0.4360 o         1 MOL     -0.541797
    130 C41        -7.0010    1.8210    2.6140 c3        1 MOL      0.537947
    131 C42        -8.4470    1.8950    3.0870 c3        1 MOL     -0.521984
    132 O20        -6.3570    2.4900    3.6290 oh        1 MOL     -0.676968
    133 H60        -4.5540    1.1210    2.6900 hn        1 MOL      0.133829
    134 H61        -6.8920   -0.2030    3.4300 h1        1 MOL      0.155596
    135 H62        -6.8410    2.3730    1.6840 h1        1 MOL     -0.022061
    136 H63        -6.8890    3.2650    3.8130 ho        1 MOL      0.411480
    137 H64        -8.9240    0.9250    2.9680 hc        1 MOL      0.133373
    138 H65        -8.4770    2.0930    4.1590 hc        1 MOL      0.133373
    139 H66        -8.9110    2.7100    2.5290 hc        1 MOL      0.133373
    140 N12        -6.5680   -1.6910    1.2830 n         1 MOL     -0.749113
    141 C43        -6.3440   -2.6650    0.1650 c3        1 MOL      0.410425
    142 C44        -5.0990   -2.2320   -0.6490 c         1 MOL      0.474917
    143 O21        -4.7980   -1.0070   -0.6440 o         1 MOL     -0.522341
    144 C45        -7.5800   -2.9380   -0.7810 c3        1 MOL     -0.240650
    145 C46        -8.9110   -3.2980   -0.1050 c3        1 MOL     -0.123409
    146 C47       -10.0270   -3.7030   -1.0500 c3        1 MOL      0.336136
    147 C48       -11.4950   -3.5320   -0.5820 c3        1 MOL     -0.206850
    148 N13       -12.4410   -4.2910   -1.4220 n4        1 MOL     -0.034205
    149 H67        -5.8880   -1.8840    1.9930 hn        1 MOL      0.321686
    150 H68        -6.0880   -3.6080    0.6350 h1        1 MOL      0.026607
    151 H69        -7.2750   -3.8690   -1.2510 hc        1 MOL      0.078382
    152 H70        -7.8560   -2.2160   -1.5410 hc        1 MOL      0.078382
    153 H71        -9.1270   -2.3970    0.4610 hc        1 MOL      0.032173
    154 H72        -8.7850   -4.1020    0.6280 hc        1 MOL      0.032173
    155 H73        -9.8380   -4.7620   -1.2820 hc        1 MOL     -0.045615
    156 H74        -9.9960   -3.1270   -1.9680 hc        1 MOL     -0.045615
    157 H75       -11.6790   -2.4540   -0.6440 hx        1 MOL      0.123517
    158 H76       -11.6120   -3.9370    0.4190 hx        1 MOL      0.123517
    159 H77       -12.2800   -5.2920   -1.4370 hn        1 MOL      0.188347
    160 H78       -13.4030   -4.2580   -1.1040 hn        1 MOL      0.188347
    161 H79       -12.4750   -4.1010   -2.4220 hn        1 MOL      0.188347
    162 N14        -4.4500   -3.1670   -1.3430 n         1 MOL     -0.599072
    163 C49        -3.1350   -3.0270   -2.0930 c3        1 MOL      0.211786
    164 C50        -1.9750   -2.7090   -1.1110 c         1 MOL      0.371982
    165 O22        -1.2100   -1.8200   -1.4130 o         1 MOL     -0.500016
    166 C51        -2.9340   -4.3990   -2.7960 c3        1 MOL     -0.026610
    167 C52        -4.0680   -4.8200   -3.7800 c3        1 MOL     -0.051837
    168 C53        -3.8290   -6.0820   -4.6060 c         1 MOL      0.657903
    169 O23        -3.5370   -6.0530   -5.8470 o         1 MOL     -0.629186
    170 O24        -3.9400   -7.1850   -4.0020 o         1 MOL     -0.629186
    171 H80        -4.8900   -4.0800   -1.3620 hn        1 MOL      0.367852
    172 H81        -3.2660   -2.1820   -2.7620 h1        1 MOL      0.064276
    173 H82        -2.8170   -5.2060   -2.0650 hc        1 MOL      0.042699
    174 H83        -2.0700   -4.2250   -3.4420 hc        1 MOL      0.042699
    175 H84        -4.4510   -4.0290   -4.4380 hc        1 MOL     -0.050846
    176 H85        -4.9210   -5.0500   -3.1460 hc        1 MOL     -0.050846
    177 N15        -1.7490   -3.2930    0.0640 n         1 MOL     -0.289582
    178 C54        -2.1960   -4.6240    0.5350 c3        1 MOL     -0.046178
    179 H86        -1.5530   -5.3950    0.1090 h1        1 MOL      0.038926
    180 H87        -2.1370   -4.6640    1.6230 h1        1 MOL      0.038926
    181 H88        -3.2250   -4.7950    0.2190 h1        1 MOL      0.038926
    182 H89        -1.0590   -2.8330    0.6420 hn        1 MOL      0.337295
    183 Ca1        -0.4650    0.8280   -1.1600 Ca        1 MOL      1.834909
    184 O25         1.0020   -0.3860   -3.3200 oh        1 MOL     -0.883491
    185 H90         1.1330    0.3500   -3.9180 ho        1 MOL      0.415310
    186 H91         0.8080   -1.1270   -3.8910 ho        1 MOL      0.415310
    187 O26        -2.0290    0.2390   -3.2370 oh        1 MOL     -0.883491
    188 H92        -2.8860    0.4310   -2.8580 ho        1 MOL      0.415310
    189 H93        -2.1860    0.1000   -4.1650 ho        1 MOL      0.415310
    190 O27        -3.2960    1.2210   -0.4360 oh        1 MOL     -0.883491
    191 H94        -3.8180    2.0230   -0.3500 ho        1 MOL      0.415310
    192 H95        -3.9430    0.5290   -0.5660 ho        1 MOL      0.415310
@<TRIPOS>BOND
     1    1    2 1   
     2    1    4 1   
     3    1    5 1   
     4    1    6 1   
     5    2    3 2   
     6    2    7 1   
     7    7    8 1   
     8    7   15 1   
     9    8    9 1   
    10    8   11 1   
    11    8   16 1   
    12    9   10 2   
    13    9   19 1   
    14   11   12 1   
    15   11   17 1   
    16   11   18 1   
    17   12   13 1   
    18   12   14 1   
    19   19   20 1   
    20   19   28 1   
    21   20   21 1   
    22   20   23 1   
    23   20   29 1   
    24   21   22 2   
    25   21   41 1   
    26   23   24 1   
    27   23   30 1   
    28   23   31 1   
    29   24   25 1   
    30   24   32 1   
    31   24   33 1   
    32   25   26 1   
    33   25   34 1   
    34   25   35 1   
    35   26   27 1   
    36   26   36 1   
    37   26   37 1   
    38   27   38 1   
    39   27   39 1   
    40   27   40 1   
    41   41   42 1   
    42   41   49 1   
    43   42   43 1   
    44   42   45 1   
    45   42   50 1   
    46   43   44 2   
    47   43   53 1   
    48   45   46 1   
    49   45   51 1   
    50   45   52 1   
    51   46   47 1   
    52   46   48 1   
    53   53   54 1   
    54   53   57 1   
    55   54   55 1   
    56   54   58 1   
    57   54   59 1   
    58   55   56 2   
    59   55   60 1   
    60   60   61 1   
    61   60   68 1   
    62   61   62 1   
    63   61   64 1   
    64   61   69 1   
    65   62   63 2   
    66   62   72 1   
    67   64   65 1   
    68   64   70 1   
    69   64   71 1   
    70   65   66 1   
    71   65   67 1   
    72   72   73 1   
    73   72   76 1   
    74   73   74 1   
    75   73   77 1   
    76   73   78 1   
    77   74   75 2   
    78   74   79 1   
    79   79   80 1   
    80   79   86 1   
    81   80   81 1   
    82   80   83 1   
    83   80   87 1   
    84   81   82 2   
    85   81   93 1   
    86   83   84 1   
    87   83   85 1   
    88   83   88 1   
    89   84   90 1   
    90   84   91 1   
    91   84   92 1   
    92   85   89 1   
    93   93   94 1   
    94   93  101 1   
    95   94   95 1   
    96   94   97 1   
    97   94  102 1   
    98   95   96 2   
    99   95  112 1   
   100   97   98 1   
   101   97   99 1   
   102   97  103 1   
   103   98  100 1   
   104   98  104 1   
   105   98  105 1   
   106   99  106 1   
   107   99  107 1   
   108   99  108 1   
   109  100  109 1   
   110  100  110 1   
   111  100  111 1   
   112  112  113 1   
   113  112  119 1   
   114  113  114 1   
   115  113  116 1   
   116  113  120 1   
   117  114  115 2   
   118  114  126 1   
   119  116  117 1   
   120  116  118 1   
   121  116  121 1   
   122  117  123 1   
   123  117  124 1   
   124  117  125 1   
   125  118  122 1   
   126  126  127 1   
   127  126  133 1   
   128  127  128 1   
   129  127  130 1   
   130  127  134 1   
   131  128  129 2   
   132  128  140 1   
   133  130  131 1   
   134  130  132 1   
   135  130  135 1   
   136  131  137 1   
   137  131  138 1   
   138  131  139 1   
   139  132  136 1   
   140  140  141 1   
   141  140  149 1   
   142  141  142 1   
   143  141  144 1   
   144  141  150 1   
   145  142  143 2   
   146  142  162 1   
   147  144  145 1   
   148  144  151 1   
   149  144  152 1   
   150  145  146 1   
   151  145  153 1   
   152  145  154 1   
   153  146  147 1   
   154  146  155 1   
   155  146  156 1   
   156  147  148 1   
   157  147  157 1   
   158  147  158 1   
   159  148  159 1   
   160  148  160 1   
   161  148  161 1   
   162  162  163 1   
   163  162  171 1   
   164  163  164 1   
   165  163  166 1   
   166  163  172 1   
   167  164  165 2   
   168  164  177 1   
   169  166  167 1   
   170  166  173 1   
   171  166  174 1   
   172  167  168 1   
   173  167  175 1   
   174  167  176 1   
   175  168  169 1   
   176  168  170 1   
   177  177  178 1   
   178  177  182 1   
   179  178  179 1   
   180  178  180 1   
   181  178  181 1   
   182  184  185 1   
   183  184  186 1   
   184  187  188 1   
   185  187  189 1   
   186  190  191 1   
   187  190  192 1   
@<TRIPOS>SUBSTRUCTURE
     1 MOL         1 TEMP              0 ****  ****    0 ROOT
