@<TRIPOS>MOLECULE
MOL
  182   178     1     0     0
SMALL
resp


@<TRIPOS>ATOM
      1 C1          1.1000   -3.5060    6.5340 c3        1 MOL     -0.321428
      2 C2          1.1560   -3.3190    5.0350 c         1 MOL      0.818108
      3 O1          0.1310   -3.2820    4.4290 o         1 MOL     -0.579685
      4 H1          0.0650   -3.4340    6.8700 hc        1 MOL      0.086322
      5 H2          1.4970   -4.4870    6.7930 hc        1 MOL      0.086322
      6 H3          1.6940   -2.7330    7.0200 hc        1 MOL      0.086322
      7 N1          2.3750   -3.0910    4.5310 n         1 MOL     -0.686585
      8 C3          2.6240   -2.8390    3.1290 c3        1 MOL      0.118263
      9 C4          2.6640   -4.1860    2.3710 c         1 MOL      0.617228
     10 O2          3.0750   -5.2020    2.9840 o         1 MOL     -0.558310
     11 C5          3.7900   -1.7810    2.8600 c3        1 MOL     -0.110873
     12 C6          3.6490   -1.0370    1.5350 c         1 MOL      0.584387
     13 O3          3.7850    0.1950    1.5970 o         1 MOL     -0.649335
     14 O4          3.3930   -1.6470    0.4550 o         1 MOL     -0.649335
     15 H4          3.0860   -2.7290    5.1530 hn        1 MOL      0.345245
     16 H5          1.6350   -2.4620    2.8720 h1        1 MOL      0.006269
     17 H6          4.7890   -2.2090    2.8150 hc        1 MOL      0.048498
     18 H7          3.6200   -1.0190    3.6230 hc        1 MOL      0.048498
     19 N2          2.2710   -4.2530    1.0630 n         1 MOL     -0.344851
     20 C7          2.3680   -5.4470    0.2480 c3        1 MOL     -0.090547
     21 C8          3.4480   -5.2620   -0.7500 c         1 MOL      0.551160
     22 O5          3.7340   -6.1740   -1.5240 o         1 MOL     -0.597651
     23 C9          0.9470   -5.6470   -0.3420 c3        1 MOL      0.284956
     24 C10         0.9150   -6.9540   -1.1580 c3        1 MOL     -0.366427
     25 C11        -0.5100   -7.1770   -1.6390 c3        1 MOL      0.150832
     26 C12        -0.5320   -8.3090   -2.6990 c3        1 MOL      0.088995
     27 N3         -1.9460   -8.6700   -3.0200 n4        1 MOL     -0.470675
     28 H8          2.1140   -3.3450    0.6540 hn        1 MOL      0.052032
     29 H9          2.5820   -6.3950    0.7440 h1        1 MOL      0.109908
     30 H10         0.6600   -4.7740   -0.9320 hc        1 MOL     -0.016422
     31 H11         0.1830   -5.6760    0.4370 hc        1 MOL     -0.016422
     32 H12         1.1400   -7.8480   -0.5730 hc        1 MOL      0.110326
     33 H13         1.4540   -6.8530   -2.0980 hc        1 MOL      0.110326
     34 H14        -0.9200   -6.2780   -2.0980 hc        1 MOL     -0.010648
     35 H15        -1.2040   -7.4110   -0.8320 hc        1 MOL     -0.010648
     36 H16        -0.0120   -9.1990   -2.3280 hx        1 MOL      0.068067
     37 H17         0.0070   -7.9820   -3.5790 hx        1 MOL      0.068067
     38 H18        -2.3260   -7.9170   -3.5740 hn        1 MOL      0.331879
     39 H19        -1.9520   -9.4980   -3.6030 hn        1 MOL      0.331879
     40 H20        -2.4510   -8.8950   -2.1670 hn        1 MOL      0.331879
     41 N4          3.9930   -4.0670   -0.9770 n         1 MOL     -0.146463
     42 C13         5.1090   -3.8430   -1.8840 c3        1 MOL     -0.111375
     43 C14         6.2840   -3.0370   -1.2040 c         1 MOL      0.519572
     44 O6          7.2070   -2.5830   -1.8170 o         1 MOL     -0.505782
     45 C15         4.6990   -3.0740   -3.1430 c3        1 MOL     -0.150634
     46 C16         3.9070   -1.8160   -2.7610 c         1 MOL      0.818781
     47 O7          4.4420   -0.8860   -2.1810 o         1 MOL     -0.790671
     48 O8          2.6550   -1.8110   -2.9000 o         1 MOL     -0.790671
     49 H21         3.6250   -3.3520   -0.3670 hn        1 MOL      0.031423
     50 H22         5.5440   -4.7770   -2.2440 h1        1 MOL      0.145938
     51 H23         4.0640   -3.6860   -3.7850 hc        1 MOL      0.059824
     52 H24         5.5390   -2.7570   -3.7740 hc        1 MOL      0.059824
     53 N5          6.1140   -2.7450    0.1190 n         1 MOL     -0.434957
     54 C17         7.2080   -2.0300    0.8340 c3        1 MOL      0.099002
     55 C18         7.4220   -0.5600    0.3850 c         1 MOL      0.529960
     56 O9          8.3970   -0.0090    0.7970 o         1 MOL     -0.565921
     57 H25         5.1650   -2.8310    0.4400 hn        1 MOL      0.237513
     58 H26         8.2050   -2.4690    0.7480 h1        1 MOL      0.056763
     59 H27         6.9720   -2.0490    1.8970 h1        1 MOL      0.056763
     60 N6          6.6890    0.1280   -0.5370 n         1 MOL     -0.120641
     61 C19         6.9600    1.5180   -0.9690 c3        1 MOL     -0.082880
     62 C20         5.7350    2.4350   -1.0230 c         1 MOL      0.646052
     63 O10         4.5930    2.0190   -1.0450 o         1 MOL     -0.479598
     64 C21         7.8270    1.6450   -2.1730 c3        1 MOL     -0.244725
     65 C22         7.3190    1.3510   -3.5040 c         1 MOL      0.660360
     66 N7          6.6990    0.1900   -3.7120 n         1 MOL     -0.707187
     67 O11         7.6260    2.0180   -4.4530 o         1 MOL     -0.592007
     68 H28         5.8630   -0.2810   -0.9430 hn        1 MOL      0.043929
     69 H29         7.5400    1.9450   -0.1520 h1        1 MOL      0.082046
     70 H30         8.6410    0.9170   -2.1310 hc        1 MOL      0.099783
     71 H31         8.2160    2.6570   -2.2510 hc        1 MOL      0.099783
     72 H32         6.4960   -0.4590   -2.9780 hn        1 MOL      0.337971
     73 H33         6.2290    0.0090   -4.5910 hn        1 MOL      0.337971
     74 N8          6.0210    3.7780   -1.0710 n         1 MOL     -0.544256
     75 C23         5.0150    4.8680   -1.2690 c3        1 MOL     -0.185599
     76 C24         3.9960    4.8880   -0.1310 c         1 MOL      0.557883
     77 O12         4.4250    4.8830    1.0100 o         1 MOL     -0.508523
     78 H34         6.9850    4.0870   -1.0990 hn        1 MOL      0.368653
     79 H35         4.6400    4.8940   -2.2950 h1        1 MOL      0.121011
     80 H36         5.5890    5.7910   -1.2750 h1        1 MOL      0.121011
     81 N9          2.7520    5.0160   -0.4340 n         1 MOL     -0.401766
     82 C25         1.5700    4.9000    0.4770 c3        1 MOL      0.107702
     83 C26         1.1520    3.4980    0.8030 c         1 MOL      0.894573
     84 O13         1.6750    2.6160    0.1110 o         1 MOL     -0.805678
     85 C27         0.4400    5.7600   -0.1160 c3        1 MOL     -0.384399
     86 C28         0.7080    7.2420   -0.1690 ca        1 MOL      0.280034
     87 C29         0.3420    8.0690    0.8580 ca        1 MOL     -0.262196
     88 C30         1.3740    7.8760   -1.2680 ca        1 MOL     -0.262196
     89 C31         0.7170    9.4250    0.9190 ca        1 MOL     -0.167863
     90 C32         1.7240    9.2520   -1.2690 ca        1 MOL     -0.167863
     91 C33         1.3860   10.0310   -0.1650 ca        1 MOL      0.235505
     92 O14         1.8530   11.3450   -0.2000 oh        1 MOL     -0.442434
     93 H37         2.5840    5.1080   -1.4220 hn        1 MOL      0.240502
     94 H38         1.9210    5.2900    1.4260 h1        1 MOL      0.073996
     95 H39        -0.5270    5.6530    0.3870 hc        1 MOL      0.103353
     96 H40         0.2030    5.2870   -1.0630 hc        1 MOL      0.103353
     97 H41        -0.1610    7.6220    1.7090 ha        1 MOL      0.139926
     98 H42         1.6760    7.2790   -2.1100 ha        1 MOL      0.139926
     99 H43         0.4990   10.0080    1.8040 ha        1 MOL      0.142374
    100 H44         2.1280    9.8180   -2.0950 ha        1 MOL      0.142374
    101 H45         1.4530   11.8050    0.5360 ho        1 MOL      0.351042
    102 N10         0.3470    3.2410    1.8780 n         1 MOL     -0.810259
    103 C34         0.0260    1.9600    2.6060 c3        1 MOL      0.400085
    104 C35        -0.2490    0.7410    1.6770 c         1 MOL      0.102644
    105 O15         0.7980    0.1930    1.1780 o         1 MOL     -0.032356
    106 C36         1.1190    1.5420    3.6060 c3        1 MOL     -0.001633
    107 C37         0.7820    0.2140    4.3840 c3        1 MOL      0.161522
    108 C38         1.4080    2.7620    4.5920 c3        1 MOL     -0.309688
    109 C39        -0.4650    0.2160    5.2980 c3        1 MOL     -0.479053
    110 H46        -0.0730    4.0630    2.3020 hn        1 MOL      0.346291
    111 H47        -0.9110    2.1640    3.1150 h1        1 MOL     -0.003275
    112 H48         2.0330    1.3290    3.0500 hc        1 MOL      0.054377
    113 H49         1.7020   -0.1090    4.8720 hc        1 MOL      0.007292
    114 H50         0.6420   -0.5540    3.6170 hc        1 MOL      0.007292
    115 H51         1.4830    3.7150    4.0790 hc        1 MOL      0.078239
    116 H52         0.7090    2.8110    5.4280 hc        1 MOL      0.078239
    117 H53         2.3270    2.6180    5.1580 hc        1 MOL      0.078239
    118 H54        -0.3390    0.8670    6.1620 hc        1 MOL      0.116149
    119 H55        -1.3050    0.5110    4.6810 hc        1 MOL      0.116149
    120 H56        -0.6410   -0.8500    5.4730 hc        1 MOL      0.116149
    121 N11        -1.4650    0.1590    1.5700 n         1 MOL     -0.397595
    122 C40        -1.6920   -1.0400    0.8240 c3        1 MOL     -0.193879
    123 C41        -3.1790   -1.2890    0.3970 c         1 MOL      0.674608
    124 O16        -3.4530   -2.1570   -0.4390 o         1 MOL     -0.589334
    125 C42        -1.0830   -2.3050    1.5060 c3        1 MOL      0.558493
    126 O17        -1.5750   -2.3540    2.7880 oh        1 MOL     -0.639769
    127 H57        -2.2610    0.5440    2.0620 hn        1 MOL      0.309295
    128 H58        -1.1790   -0.8070   -0.1110 h1        1 MOL      0.068009
    129 H59         0.0080   -2.2810    1.5230 h1        1 MOL     -0.110946
    130 H60        -1.3860   -3.1440    0.8760 h1        1 MOL     -0.110946
    131 H61        -0.8420   -2.7230    3.2910 ho        1 MOL      0.383742
    132 N12        -4.0800   -0.5400    0.9610 n         1 MOL     -0.505605
    133 C43        -5.4420   -0.5820    0.5330 c3        1 MOL      0.135997
    134 C44        -5.5900   -0.1000   -0.8710 c         1 MOL      0.687576
    135 O18        -4.7960    0.5840   -1.4190 o         1 MOL     -0.566969
    136 C45        -6.2770    0.2350    1.5940 c3        1 MOL     -0.337073
    137 H62        -3.9140    0.1800    1.6440 hn        1 MOL      0.271613
    138 H63        -5.8190   -1.6030    0.6260 h1        1 MOL      0.094765
    139 H64        -6.0500    1.3020    1.5700 hc        1 MOL      0.101320
    140 H65        -7.3650    0.1930    1.4730 hc        1 MOL      0.101320
    141 H66        -6.1230   -0.2770    2.5370 hc        1 MOL      0.101320
    142 N13        -6.6740   -0.4560   -1.6500 n         1 MOL     -0.694482
    143 C46        -7.9630   -1.0560   -1.2080 c3        1 MOL      0.325295
    144 C47        -9.1100   -0.6590   -2.1630 c         1 MOL      0.450071
    145 O19        -8.8870   -0.2840   -3.2810 o         1 MOL     -0.527814
    146 C48        -7.8700   -2.6030   -1.1860 c3        1 MOL     -0.343350
    147 H67        -6.5660   -0.4280   -2.6500 hn        1 MOL      0.353085
    148 H68        -8.2550   -0.6390   -0.2470 h1        1 MOL     -0.045584
    149 H69        -8.8190   -3.0370   -0.8700 hc        1 MOL      0.088272
    150 H70        -7.4710   -2.9040   -2.1530 hc        1 MOL      0.088272
    151 H71        -7.2150   -2.9300   -0.3830 hc        1 MOL      0.088272
    152 N14       -10.3630   -0.4880   -1.7240 n         1 MOL     -0.360323
    153 C49       -10.7510   -0.4500   -0.2800 c3        1 MOL     -0.230417
    154 C50       -10.2820    0.6150    0.6410 c         1 MOL      0.573861
    155 O20       -10.2080    0.4420    1.8520 o         1 MOL     -0.574319
    156 C51       -12.2800   -0.7800   -0.1720 c3        1 MOL      0.050302
    157 C52       -13.2420    0.4700   -0.3710 c3        1 MOL     -0.146751
    158 C53       -12.8660    1.1730   -1.6470 c         1 MOL      0.685943
    159 O21       -12.9250    0.4580   -2.7100 o         1 MOL     -0.671098
    160 O22       -12.5190    2.3760   -1.5890 o         1 MOL     -0.671098
    161 H72       -11.0740   -0.2330   -2.4030 hn        1 MOL      0.286583
    162 H73       -10.2660   -1.2910    0.2110 h1        1 MOL      0.100251
    163 H74       -12.3470   -1.0550    0.8750 hc        1 MOL      0.015876
    164 H75       -12.4770   -1.7060   -0.7050 hc        1 MOL      0.015876
    165 H76       -13.1600    1.1560    0.4790 hc        1 MOL      0.025290
    166 H77       -14.2460    0.0580   -0.3640 hc        1 MOL      0.025290
    167 N15       -10.0700    1.8470    0.1660 n         1 MOL     -0.171620
    168 C54        -9.4280    2.9980    0.8220 c3        1 MOL     -0.332549
    169 H78        -9.8720    3.1490    1.8050 h1        1 MOL      0.126626
    170 H79        -8.3610    2.8060    0.9320 h1        1 MOL      0.126626
    171 H80        -9.5760    3.8910    0.2150 h1        1 MOL      0.126626
    172 H81       -10.2710    1.9120   -0.8280 hn        1 MOL      0.249175
    173 Ca1         2.3920    0.3440   -1.0850 Ca        1 MOL      1.778736
    174 O23         0.9100   -2.0170   -1.1060 oh        1 MOL     -0.840594
    175 H82         1.5440   -2.2230   -1.7890 ho        1 MOL      0.417065
    176 H83         0.1300   -2.5270   -1.3500 ho        1 MOL      0.417065
    177 O24         2.5040    1.5920   -3.5710 oh        1 MOL     -0.840594
    178 H84         3.1020    2.1850   -4.0040 ho        1 MOL      0.417065
    179 H85         1.7290    1.5740   -4.1320 ho        1 MOL      0.417065
    180 O25        -0.0540    0.9810   -1.9240 oh        1 MOL     -0.840594
    181 H86        -0.8080    0.4950   -2.2560 ho        1 MOL      0.417065
    182 H87        -0.3850    1.8670   -1.7920 ho        1 MOL      0.417065
@<TRIPOS>BOND
     1    1    2 1   
     2    1    4 1   
     3    1    5 1   
     4    1    6 1   
     5    2    3 2   
     6    2    7 1   
     7    7    8 1   
     8    7   15 1   
     9    8    9 1   
    10    8   11 1   
    11    8   16 1   
    12    9   10 2   
    13    9   19 1   
    14   11   12 1   
    15   11   17 1   
    16   11   18 1   
    17   12   13 1   
    18   12   14 1   
    19   19   20 1   
    20   19   28 1   
    21   20   21 1   
    22   20   23 1   
    23   20   29 1   
    24   21   22 2   
    25   21   41 1   
    26   23   24 1   
    27   23   30 1   
    28   23   31 1   
    29   24   25 1   
    30   24   32 1   
    31   24   33 1   
    32   25   26 1   
    33   25   34 1   
    34   25   35 1   
    35   26   27 1   
    36   26   36 1   
    37   26   37 1   
    38   27   38 1   
    39   27   39 1   
    40   27   40 1   
    41   41   42 1   
    42   41   49 1   
    43   42   43 1   
    44   42   45 1   
    45   42   50 1   
    46   43   44 2   
    47   43   53 1   
    48   45   46 1   
    49   45   51 1   
    50   45   52 1   
    51   46   47 1   
    52   46   48 1   
    53   53   54 1   
    54   53   57 1   
    55   54   55 1   
    56   54   58 1   
    57   54   59 1   
    58   55   56 2   
    59   55   60 1   
    60   60   61 1   
    61   60   68 1   
    62   61   62 1   
    63   61   64 1   
    64   61   69 1   
    65   62   63 2   
    66   62   74 1   
    67   64   65 1   
    68   64   70 1   
    69   64   71 1   
    70   65   66 1   
    71   65   67 2   
    72   66   72 1   
    73   66   73 1   
    74   74   75 1   
    75   74   78 1   
    76   75   76 1   
    77   75   79 1   
    78   75   80 1   
    79   76   77 2   
    80   76   81 1   
    81   81   82 1   
    82   81   93 1   
    83   82   83 1   
    84   82   85 1   
    85   82   94 1   
    86   83   84 2   
    87   83  102 1   
    88   85   86 1   
    89   85   95 1   
    90   85   96 1   
    91   86   87 ar  
    92   86   88 ar  
    93   87   89 ar  
    94   87   97 1   
    95   88   90 ar  
    96   88   98 1   
    97   89   91 ar  
    98   89   99 1   
    99   90   91 ar  
   100   90  100 1   
   101   91   92 1   
   102   92  101 1   
   103  102  103 1   
   104  102  110 1   
   105  103  104 1   
   106  103  106 1   
   107  103  111 1   
   108  104  105 2   
   109  104  121 1   
   110  106  107 1   
   111  106  108 1   
   112  106  112 1   
   113  107  109 1   
   114  107  113 1   
   115  107  114 1   
   116  108  115 1   
   117  108  116 1   
   118  108  117 1   
   119  109  118 1   
   120  109  119 1   
   121  109  120 1   
   122  121  122 1   
   123  121  127 1   
   124  122  123 1   
   125  122  125 1   
   126  122  128 1   
   127  123  124 2   
   128  123  132 1   
   129  125  126 1   
   130  125  129 1   
   131  125  130 1   
   132  126  131 1   
   133  132  133 1   
   134  132  137 1   
   135  133  134 1   
   136  133  136 1   
   137  133  138 1   
   138  134  135 2   
   139  134  142 1   
   140  136  139 1   
   141  136  140 1   
   142  136  141 1   
   143  142  143 1   
   144  142  147 1   
   145  143  144 1   
   146  143  146 1   
   147  143  148 1   
   148  144  145 2   
   149  144  152 1   
   150  146  149 1   
   151  146  150 1   
   152  146  151 1   
   153  152  153 1   
   154  152  161 1   
   155  153  154 1   
   156  153  156 1   
   157  153  162 1   
   158  154  155 2   
   159  154  167 1   
   160  156  157 1   
   161  156  163 1   
   162  156  164 1   
   163  157  158 1   
   164  157  165 1   
   165  157  166 1   
   166  158  159 1   
   167  158  160 1   
   168  167  168 1   
   169  167  172 1   
   170  168  169 1   
   171  168  170 1   
   172  168  171 1   
   173  174  175 1   
   174  174  176 1   
   175  177  178 1   
   176  177  179 1   
   177  180  181 1   
   178  180  182 1   
@<TRIPOS>SUBSTRUCTURE
     1 MOL         1 TEMP              0 ****  ****    0 ROOT
