@<TRIPOS>MOLECULE
MOL
  178   175     1     0     0
SMALL
resp


@<TRIPOS>ATOM
      1 C1          2.1340   -1.1580    5.0140 c3        1 MOL     -0.312375
      2 C2          3.2580   -1.3430    3.9780 c         1 MOL      0.720959
      3 O1          3.2910   -0.5850    2.9940 o         1 MOL     -0.573143
      4 H1          2.4850   -1.4860    5.9930 hc        1 MOL      0.070767
      5 H2          1.8540   -0.1060    5.0620 hc        1 MOL      0.070767
      6 H3          1.2690   -1.7510    4.7210 hc        1 MOL      0.070767
      7 N1          4.1790   -2.2970    4.2590 n         1 MOL     -0.717232
      8 C3          5.5000   -2.2990    3.6500 c3        1 MOL      0.544035
      9 C4          5.5270   -2.7680    2.2380 c         1 MOL      0.427287
     10 O2          6.5510   -2.7030    1.5550 o         1 MOL     -0.513877
     11 C5          6.4300   -3.1010    4.5750 c3        1 MOL     -0.481455
     12 C6          7.9120   -2.5770    4.6520 c         1 MOL      0.757002
     13 O3          8.7460   -3.3150    5.2660 o         1 MOL     -0.726058
     14 O4          8.2910   -1.5550    4.0390 o         1 MOL     -0.726058
     15 H4          4.0110   -2.8990    5.0500 hn        1 MOL      0.323260
     16 H5          5.9050   -1.2870    3.5920 h1        1 MOL     -0.021244
     17 H6          6.4600   -4.1460    4.2840 hc        1 MOL      0.073067
     18 H7          6.0110   -3.0800    5.5820 hc        1 MOL      0.073067
     19 N2          4.4640   -3.3020    1.6910 n         1 MOL     -0.496494
     20 C7          4.3830   -3.9390    0.3770 c3        1 MOL      0.494105
     21 C8          4.5190   -2.9910   -0.8440 c         1 MOL      0.484779
     22 O5          3.4740   -2.8570   -1.5010 o         1 MOL     -0.647185
     23 C9          5.3230   -5.1690    0.2500 c3        1 MOL     -0.466871
     24 H8          3.6660   -3.4760    2.2940 hn        1 MOL      0.249781
     25 H9          3.3550   -4.2170    0.2070 h1        1 MOL     -0.021345
     26 H10         4.9780   -5.8100    1.0550 hc        1 MOL      0.112972
     27 H11         5.1560   -5.6340   -0.7270 hc        1 MOL      0.112972
     28 H12         6.3770   -4.9050    0.3530 hc        1 MOL      0.112972
     29 N3          5.6300   -2.2640   -1.0580 n         1 MOL     -0.488004
     30 C10         5.7960   -1.2380   -2.0950 c3        1 MOL      0.232044
     31 C11         6.3100    0.0740   -1.5850 c         1 MOL      0.501705
     32 O6          6.9440    0.8210   -2.3500 o         1 MOL     -0.564050
     33 C12         6.6580   -1.7710   -3.2050 c3        1 MOL     -0.289099
     34 C13         5.9850   -2.8980   -4.0150 c         1 MOL      0.786238
     35 O7          6.3630   -4.1140   -3.9990 o         1 MOL     -0.739729
     36 O8          5.1210   -2.5590   -4.8260 o         1 MOL     -0.739729
     37 H13         6.3560   -2.4360   -0.3760 hn        1 MOL      0.273495
     38 H14         4.8450   -1.0100   -2.5640 h1        1 MOL      0.026285
     39 H15         7.6740   -1.9870   -2.8550 hc        1 MOL      0.053815
     40 H16         6.6930   -0.9700   -3.9500 hc        1 MOL      0.053815
     41 N4          6.0920    0.3560   -0.3180 n         1 MOL     -0.214202
     42 C14         6.2810    1.7580    0.1870 c3        1 MOL     -0.165101
     43 C15         5.2190    2.7430   -0.2370 c         1 MOL      0.615838
     44 O9          5.4820    3.9560   -0.1920 o         1 MOL     -0.574542
     45 H17         5.6710   -0.4030    0.1870 hn        1 MOL      0.188126
     46 H18         7.2250    2.1640   -0.1750 h1        1 MOL      0.107240
     47 H19         6.2670    1.7180    1.2770 h1        1 MOL      0.107240
     48 N5          4.1140    2.3030   -0.9070 n         1 MOL     -0.377645
     49 C16         3.1310    3.0890   -1.7570 c3        1 MOL     -0.169658
     50 C17         2.6130    4.3410   -1.0890 c         1 MOL      0.791200
     51 O10         1.9440    4.3220   -0.0580 o         1 MOL     -0.591002
     52 C18         1.9580    2.1280   -2.1420 c3        1 MOL     -0.524643
     53 C19         2.4400    0.9160   -2.8960 c         1 MOL      0.641491
     54 N6          3.2560    1.0850   -3.9040 n         1 MOL     -0.692675
     55 O11         2.3090   -0.2100   -2.5300 o         1 MOL     -0.558365
     56 H20         4.1050    1.2960   -0.9470 hn        1 MOL      0.302321
     57 H21         3.6390    3.4550   -2.6510 h1        1 MOL      0.094596
     58 H22         1.1710    2.6650   -2.6650 hc        1 MOL      0.222603
     59 H23         1.4320    1.6940   -1.2880 hc        1 MOL      0.222603
     60 H24         3.3290    1.9910   -4.3390 hn        1 MOL      0.339038
     61 H25         3.5160    0.2570   -4.4150 hn        1 MOL      0.339038
     62 N7          2.8340    5.4910   -1.7250 n         1 MOL     -0.407657
     63 C20         2.6330    6.8270   -1.2310 c3        1 MOL     -0.175858
     64 C21         1.1960    7.2030   -1.2760 c         1 MOL      0.666623
     65 O12         0.6490    7.1360   -2.3510 o         1 MOL     -0.546328
     66 H26         3.2390    5.5270   -2.6530 hn        1 MOL      0.274730
     67 H27         3.1490    7.6220   -1.7680 h1        1 MOL      0.101007
     68 H28         3.0160    6.9020   -0.2120 h1        1 MOL      0.101007
     69 N8          0.5940    7.5350   -0.1720 n         1 MOL     -0.636161
     70 C22        -0.8460    8.0710   -0.2790 c3        1 MOL     -0.193775
     71 C23        -1.9200    7.0410   -0.0020 c         1 MOL      0.477272
     72 O13        -3.0710    7.3610    0.2930 o         1 MOL     -0.577982
     73 C24        -1.1050    9.2830    0.5890 c3        1 MOL      0.652140
     74 C25        -0.7970    9.2680    2.0270 c3        1 MOL     -0.192319
     75 O14        -0.4010   10.3300   -0.0760 oh        1 MOL     -0.699638
     76 H29         1.0350    7.5100    0.7340 hn        1 MOL      0.344612
     77 H30        -1.0600    8.4060   -1.2910 h1        1 MOL      0.140251
     78 H31        -2.1500    9.5730    0.4890 h1        1 MOL     -0.019501
     79 H32         0.4520    9.9710   -0.3240 ho        1 MOL      0.381214
     80 H33        -1.6420    8.7840    2.5120 hc        1 MOL      0.024005
     81 H34         0.0130    8.5390    2.1220 hc        1 MOL      0.024005
     82 H35        -0.5520   10.2590    2.4090 hc        1 MOL      0.024005
     83 N9         -1.5350    5.7830    0.2170 n         1 MOL     -0.111259
     84 C26        -2.2480    4.6690    0.8470 c3        1 MOL     -0.154369
     85 C27        -1.9650    3.3620    0.0940 c         1 MOL      0.400499
     86 O15        -1.0460    3.4010   -0.7270 o         1 MOL     -0.432929
     87 C28        -1.8440    4.3840    2.2960 c3        1 MOL      0.266135
     88 C29        -0.3830    4.3350    2.6230 c3        1 MOL     -0.103724
     89 C30        -2.5170    5.4930    3.1830 c3        1 MOL     -0.448370
     90 C31        -0.0260    3.5370    3.9460 c3        1 MOL      0.020336
     91 H36        -0.5690    5.5940    0.0080 hn        1 MOL      0.157095
     92 H37        -3.3230    4.8620    0.8570 h1        1 MOL      0.094232
     93 H38        -2.2630    3.4350    2.6180 hc        1 MOL     -0.009198
     94 H39        -0.0590    5.3600    2.7950 hc        1 MOL      0.072299
     95 H40         0.1980    3.7900    1.8600 hc        1 MOL      0.072299
     96 H41        -2.2480    5.2550    4.2070 hc        1 MOL      0.101012
     97 H42        -2.1970    6.4900    2.8680 hc        1 MOL      0.101012
     98 H43        -3.6060    5.5000    3.1850 hc        1 MOL      0.101012
     99 H44        -0.7380    2.7190    4.0930 hc        1 MOL     -0.006602
    100 H45         1.0100    3.2180    3.8590 hc        1 MOL     -0.006602
    101 H46        -0.1910    4.2080    4.7860 hc        1 MOL     -0.006602
    102 N10        -2.7560    2.2730    0.2830 n         1 MOL     -0.437566
    103 C32        -2.4910    0.9390   -0.3710 c3        1 MOL      0.013173
    104 C33        -3.7630    0.0610   -0.3200 c         1 MOL      0.508654
    105 O16        -3.6590   -1.2210   -0.5230 o         1 MOL     -0.455967
    106 C34        -1.3950    0.1280    0.3800 c3        1 MOL     -0.028893
    107 C35        -0.5190   -0.6660   -0.6120 c         1 MOL      0.619010
    108 O17         0.4760   -1.2640   -0.1670 o         1 MOL     -0.719318
    109 O18        -0.8450   -0.7540   -1.8140 o         1 MOL     -0.719318
    110 H47        -3.4270    2.3550    1.0310 hn        1 MOL      0.248729
    111 H48        -2.2750    1.0870   -1.4290 h1        1 MOL      0.100454
    112 H49        -1.9000   -0.4640    1.1370 hc        1 MOL      0.037606
    113 H50        -0.7510    0.8720    0.8440 hc        1 MOL      0.037606
    114 N11        -5.0050    0.5910   -0.1820 n         1 MOL     -0.447705
    115 C36        -6.1710   -0.2070   -0.5620 c3        1 MOL      0.118185
    116 C37        -6.3650   -1.4340    0.3680 c         1 MOL      0.201680
    117 O19        -6.1270   -1.3160    1.5390 o         1 MOL     -0.426977
    118 C38        -7.4340    0.6830   -0.5860 c3        1 MOL     -0.072161
    119 C39        -8.7400    0.0300   -0.9240 ca        1 MOL     -0.074954
    120 C40        -9.0930   -0.1300   -2.2940 ca        1 MOL     -0.077969
    121 C41        -9.5650   -0.6290    0.0500 ca        1 MOL     -0.077969
    122 C42       -10.2730   -0.8230   -2.6450 ca        1 MOL     -0.165473
    123 C43       -10.7080   -1.3350   -0.2630 ca        1 MOL     -0.165473
    124 C44       -11.0540   -1.4410   -1.5930 ca        1 MOL     -0.038652
    125 H51        -5.0700    1.5980   -0.1330 hn        1 MOL      0.255868
    126 H52        -5.9780   -0.5290   -1.5920 h1        1 MOL      0.057298
    127 H53        -7.2450    1.4980   -1.2820 hc        1 MOL      0.076437
    128 H54        -7.5710    1.2990    0.3160 hc        1 MOL      0.076437
    129 H55        -8.5230    0.3980   -3.0340 ha        1 MOL      0.108020
    130 H56        -9.2290   -0.5550    1.0690 ha        1 MOL      0.108020
    131 H57       -10.4600   -0.8520   -3.7130 ha        1 MOL      0.127325
    132 H58       -11.2680   -1.8840    0.4840 ha        1 MOL      0.127325
    133 H59       -12.0080   -1.8320   -1.9210 ha        1 MOL      0.080069
    134 N12        -6.7380   -2.6280   -0.1250 n         1 MOL     -0.013971
    135 C45        -6.8060   -3.8330    0.6370 c3        1 MOL      0.067726
    136 C46        -5.5860   -4.1900    1.4890 c         1 MOL      0.189013
    137 O20        -5.8120   -4.9750    2.4340 o         1 MOL     -0.499174
    138 C47        -6.7840   -4.9490   -0.4180 c3        1 MOL      0.074363
    139 C48        -7.5140   -4.2590   -1.6060 c3        1 MOL     -0.174860
    140 C49        -7.0540   -2.8100   -1.4980 c3        1 MOL      0.110413
    141 H60        -7.7020   -3.9470    1.2420 h1        1 MOL      0.074088
    142 H61        -5.8380   -5.3040   -0.8340 hc        1 MOL      0.017862
    143 H62        -7.3010   -5.7960    0.0470 hc        1 MOL      0.017862
    144 H63        -7.2810   -4.7470   -2.5580 hc        1 MOL      0.037566
    145 H64        -8.5750   -4.3240   -1.3550 hc        1 MOL      0.037566
    146 H65        -6.0940   -2.6980   -2.0090 h1        1 MOL      0.007506
    147 H66        -7.7360   -2.0810   -1.9280 h1        1 MOL      0.007506
    148 N13        -4.3260   -3.7240    1.2320 n         1 MOL     -0.035022
    149 C50        -3.2520   -4.0520    2.1790 c3        1 MOL      0.031711
    150 C51        -3.2310   -3.1220    3.4750 c         1 MOL      0.326766
    151 O21        -2.7110   -3.4800    4.5380 o         1 MOL     -0.528767
    152 C52        -1.9040   -3.9200    1.4160 c3        1 MOL     -0.019038
    153 C53        -1.6690   -4.9320    0.3110 c3        1 MOL     -0.218163
    154 C54        -0.5960   -4.4740   -0.7490 c         1 MOL      0.734105
    155 O22         0.5830   -4.2410   -0.4500 o         1 MOL     -0.736838
    156 O23        -0.8430   -4.1630   -1.9470 o         1 MOL     -0.736838
    157 H67        -4.2410   -2.9060    0.6420 hn        1 MOL      0.107929
    158 H68        -3.3860   -5.0590    2.5740 h1        1 MOL      0.077469
    159 H69        -1.1360   -4.1810    2.1400 hc        1 MOL      0.055465
    160 H70        -1.8710   -2.8870    1.0550 hc        1 MOL      0.055465
    161 H71        -2.6110   -5.1350   -0.1920 hc        1 MOL      0.026381
    162 H72        -1.2670   -5.8690    0.7210 hc        1 MOL      0.026381
    163 N14        -3.9780   -2.0190    3.3760 n         1 MOL      0.013771
    164 C55        -4.1310   -1.1400    4.5590 c3        1 MOL     -0.325515
    165 H73        -3.9730   -1.7230    5.4660 h1        1 MOL      0.111828
    166 H74        -3.3970   -0.3360    4.5130 h1        1 MOL      0.111828
    167 H75        -5.1360   -0.7160    4.5710 h1        1 MOL      0.111828
    168 H76        -4.6150   -1.9410    2.5880 hn        1 MOL      0.109875
    169 Ca1         1.1080   -2.6180   -2.4790 Ca        1 MOL      1.794683
    170 O24         2.3610   -2.9720   -4.9690 oh        1 MOL     -0.850654
    171 H77         3.3020   -2.8400   -5.0560 ho        1 MOL      0.406042
    172 H78         2.1930   -3.8120   -5.3890 ho        1 MOL      0.406042
    173 O25        -0.7180   -2.2470   -4.4360 oh        1 MOL     -0.850654
    174 H79        -1.6530   -2.4580   -4.3690 ho        1 MOL      0.406042
    175 H80        -0.6520   -1.6530   -5.1860 ho        1 MOL      0.406042
    176 O26         1.7420   -5.3780   -3.1090 oh        1 MOL     -0.850654
    177 H81         2.6860   -5.3130   -2.9830 ho        1 MOL      0.406042
    178 H82         1.5840   -6.3040   -3.2840 ho        1 MOL      0.406042
@<TRIPOS>BOND
     1    1    2 1   
     2    1    4 1   
     3    1    5 1   
     4    1    6 1   
     5    2    3 2   
     6    2    7 1   
     7    7    8 1   
     8    7   15 1   
     9    8    9 1   
    10    8   11 1   
    11    8   16 1   
    12    9   10 2   
    13    9   19 1   
    14   11   12 1   
    15   11   17 1   
    16   11   18 1   
    17   12   13 1   
    18   12   14 1   
    19   19   20 1   
    20   19   24 1   
    21   20   21 1   
    22   20   23 1   
    23   20   25 1   
    24   21   22 2   
    25   21   29 1   
    26   23   26 1   
    27   23   27 1   
    28   23   28 1   
    29   29   30 1   
    30   29   37 1   
    31   30   31 1   
    32   30   33 1   
    33   30   38 1   
    34   31   32 2   
    35   31   41 1   
    36   33   34 1   
    37   33   39 1   
    38   33   40 1   
    39   34   35 1   
    40   34   36 1   
    41   41   42 1   
    42   41   45 1   
    43   42   43 1   
    44   42   46 1   
    45   42   47 1   
    46   43   44 2   
    47   43   48 1   
    48   48   49 1   
    49   48   56 1   
    50   49   50 1   
    51   49   52 1   
    52   49   57 1   
    53   50   51 2   
    54   50   62 1   
    55   52   53 1   
    56   52   58 1   
    57   52   59 1   
    58   53   54 1   
    59   53   55 2   
    60   54   60 1   
    61   54   61 1   
    62   62   63 1   
    63   62   66 1   
    64   63   64 1   
    65   63   67 1   
    66   63   68 1   
    67   64   65 2   
    68   64   69 1   
    69   69   70 1   
    70   69   76 1   
    71   70   71 1   
    72   70   73 1   
    73   70   77 1   
    74   71   72 2   
    75   71   83 1   
    76   73   74 1   
    77   73   75 1   
    78   73   78 1   
    79   74   80 1   
    80   74   81 1   
    81   74   82 1   
    82   75   79 1   
    83   83   84 1   
    84   83   91 1   
    85   84   85 1   
    86   84   87 1   
    87   84   92 1   
    88   85   86 2   
    89   85  102 1   
    90   87   88 1   
    91   87   89 1   
    92   87   93 1   
    93   88   90 1   
    94   88   94 1   
    95   88   95 1   
    96   89   96 1   
    97   89   97 1   
    98   89   98 1   
    99   90   99 1   
   100   90  100 1   
   101   90  101 1   
   102  102  103 1   
   103  102  110 1   
   104  103  104 1   
   105  103  106 1   
   106  103  111 1   
   107  104  105 2   
   108  104  114 1   
   109  106  107 1   
   110  106  112 1   
   111  106  113 1   
   112  107  108 1   
   113  107  109 1   
   114  114  115 1   
   115  114  125 1   
   116  115  116 1   
   117  115  118 1   
   118  115  126 1   
   119  116  117 2   
   120  116  134 1   
   121  118  119 1   
   122  118  127 1   
   123  118  128 1   
   124  119  120 ar  
   125  119  121 ar  
   126  120  122 ar  
   127  120  129 1   
   128  121  123 ar  
   129  121  130 1   
   130  122  124 ar  
   131  122  131 1   
   132  123  124 ar  
   133  123  132 1   
   134  124  133 1   
   135  134  135 1   
   136  134  140 1   
   137  135  136 1   
   138  135  138 1   
   139  135  141 1   
   140  136  137 2   
   141  136  148 1   
   142  138  139 1   
   143  138  142 1   
   144  138  143 1   
   145  139  140 1   
   146  139  144 1   
   147  139  145 1   
   148  140  146 1   
   149  140  147 1   
   150  148  149 1   
   151  148  157 1   
   152  149  150 1   
   153  149  152 1   
   154  149  158 1   
   155  150  151 2   
   156  150  163 1   
   157  152  153 1   
   158  152  159 1   
   159  152  160 1   
   160  153  154 1   
   161  153  161 1   
   162  153  162 1   
   163  154  155 1   
   164  154  156 1   
   165  163  164 1   
   166  163  168 1   
   167  164  165 1   
   168  164  166 1   
   169  164  167 1   
   170  170  171 1   
   171  170  172 1   
   172  173  174 1   
   173  173  175 1   
   174  176  177 1   
   175  176  178 1   
@<TRIPOS>SUBSTRUCTURE
     1 MOL         1 TEMP              0 ****  ****    0 ROOT
