@<TRIPOS>MOLECULE
MOL
  201   193     1     0     0
SMALL
resp


@<TRIPOS>ATOM
      1 C1         -3.2150   -3.4110    3.1470 c3        1 MOL     -0.423785
      2 C2         -2.4140   -3.8550    1.8750 c         1 MOL      0.631727
      3 O1         -1.7810   -3.0090    1.3220 o         1 MOL     -0.549591
      4 H1         -4.0370   -2.7600    2.8490 hc        1 MOL      0.108167
      5 H2         -3.6130   -4.2910    3.6520 hc        1 MOL      0.108167
      6 H3         -2.5520   -2.8720    3.8240 hc        1 MOL      0.108167
      7 N1         -2.4500   -5.1690    1.4780 n         1 MOL     -0.508976
      8 C3         -1.7870   -5.8050    0.3150 c3        1 MOL      0.139826
      9 C4         -0.2670   -5.5480    0.2810 c         1 MOL      0.558530
     10 O2          0.2890   -5.3780   -0.8080 o         1 MOL     -0.491023
     11 C5         -2.5260   -5.5310   -1.0360 c3        1 MOL     -0.038678
     12 C6         -3.9690   -5.6560   -0.9770 c         1 MOL      0.693465
     13 O3         -4.6880   -4.9010   -1.7120 o         1 MOL     -0.706415
     14 O4         -4.4120   -6.4420   -0.1660 o         1 MOL     -0.706415
     15 H4         -3.0340   -5.7770    2.0380 hn        1 MOL      0.298279
     16 H5         -1.9080   -6.8720    0.4870 h1        1 MOL      0.032972
     17 H6         -2.1600   -6.2820   -1.7340 hc        1 MOL      0.023281
     18 H7         -2.3000   -4.5410   -1.4290 hc        1 MOL      0.023281
     19 N2          0.3650   -5.5500    1.4820 n         1 MOL     -0.416354
     20 C7          1.7920   -5.3940    1.5280 c3        1 MOL     -0.249631
     21 C8          2.5240   -6.5210    0.7550 c         1 MOL      0.398499
     22 O5          1.9880   -7.6030    0.4890 o         1 MOL     -0.514757
     23 C9          2.2880   -5.1570    3.0240 c3        1 MOL      0.044902
     24 C10         2.1670   -6.4340    3.8370 c3        1 MOL      0.128790
     25 C11         1.5760   -3.9390    3.6250 c3        1 MOL     -0.190799
     26 C12         2.6280   -6.3320    5.3250 c3        1 MOL     -0.208211
     27 H8         -0.2190   -5.4440    2.3040 hn        1 MOL      0.254753
     28 H9          1.9440   -4.4860    0.9340 h1        1 MOL      0.143600
     29 H10         3.3220   -4.8230    3.1350 hc        1 MOL      0.086103
     30 H11         2.8040   -7.2450    3.4620 hc        1 MOL     -0.001427
     31 H12         1.1380   -6.7540    3.6570 hc        1 MOL     -0.001427
     32 H13         0.5440   -4.1990    3.8620 hc        1 MOL      0.059552
     33 H14         2.1550   -3.6110    4.4860 hc        1 MOL      0.059552
     34 H15         1.5510   -3.2110    2.8160 hc        1 MOL      0.059552
     35 H16         3.6750   -6.0540    5.3880 hc        1 MOL      0.040235
     36 H17         1.9760   -5.7270    5.9580 hc        1 MOL      0.040235
     37 H18         2.5280   -7.3540    5.6680 hc        1 MOL      0.040235
     38 N3          3.7690   -6.3090    0.2820 n         1 MOL     -0.158046
     39 C13         4.6360   -5.1890    0.4190 c3        1 MOL     -0.153574
     40 C14         4.4400   -4.0200   -0.5500 c         1 MOL      0.646025
     41 O6          4.7580   -2.8770   -0.3090 o         1 MOL     -0.629362
     42 C15         6.1110   -5.6450    0.3890 c3        1 MOL     -0.144009
     43 C16         6.6280   -6.3350   -0.8860 c         1 MOL      0.597871
     44 O7          5.8560   -7.2120   -1.4060 o         1 MOL     -0.665539
     45 O8          7.6630   -5.9490   -1.4510 o         1 MOL     -0.665539
     46 H19         4.0390   -7.0260   -0.3690 hn        1 MOL      0.167599
     47 H20         4.5790   -4.8200    1.4480 h1        1 MOL      0.046239
     48 H21         6.1300   -6.3390    1.2360 hc        1 MOL      0.034312
     49 H22         6.7530   -4.7850    0.5640 hc        1 MOL      0.034312
     50 N4          3.8860   -4.3660   -1.7440 n         1 MOL     -0.254244
     51 C17         3.4720   -3.3870   -2.7480 c3        1 MOL     -0.279799
     52 C18         4.6680   -2.6680   -3.3360 c         1 MOL      0.668382
     53 O9          5.3170   -3.2540   -4.2030 o         1 MOL     -0.560568
     54 H23         3.6120   -5.3280   -1.9150 hn        1 MOL      0.294635
     55 H24         2.7640   -2.6800   -2.3030 h1        1 MOL      0.106430
     56 H25         2.8960   -3.7540   -3.5880 h1        1 MOL      0.106430
     57 N5          4.9940   -1.4040   -2.9590 n         1 MOL     -0.403349
     58 C19         6.1970   -0.7150   -3.4830 c3        1 MOL     -0.049686
     59 C20         7.2210   -0.3170   -2.2550 c         1 MOL      0.408882
     60 O10         8.3030    0.2280   -2.4640 o         1 MOL     -0.518791
     61 C21         5.8120    0.5210   -4.2940 c3        1 MOL     -0.136561
     62 C22         4.5970    1.2320   -3.7680 c         1 MOL      0.747248
     63 O11         4.6760    1.8760   -2.7270 o         1 MOL     -0.725629
     64 O12         3.5280    1.0430   -4.4170 o         1 MOL     -0.725629
     65 H26         4.4770   -0.9470   -2.2260 hn        1 MOL      0.275205
     66 H27         6.7070   -1.3680   -4.2010 h1        1 MOL      0.130040
     67 H28         5.5990    0.3120   -5.3470 hc        1 MOL      0.010492
     68 H29         6.5930    1.2830   -4.2820 hc        1 MOL      0.010492
     69 N6          6.7840   -0.5450   -1.0010 n         1 MOL     -0.160781
     70 C23         7.4240    0.0140    0.2220 c3        1 MOL     -0.386730
     71 C24         7.3650    1.5410    0.4080 c         1 MOL      0.600292
     72 O13         8.0350    2.0880    1.2540 o         1 MOL     -0.611670
     73 H30         5.9220   -1.0220   -0.7840 hn        1 MOL      0.286807
     74 H31         8.5040   -0.1420    0.2850 h1        1 MOL      0.154135
     75 H32         6.9040   -0.4510    1.0600 h1        1 MOL      0.154135
     76 N7          6.6270    2.2730   -0.3570 n         1 MOL     -0.215786
     77 C25         6.3410    3.7040   -0.2750 c3        1 MOL      0.287960
     78 C26         6.0080    4.3260    1.0740 c         1 MOL      0.200287
     79 O14         6.1120    5.5350    1.2450 o         1 MOL     -0.491954
     80 C27         7.4360    4.5320   -1.0310 c3        1 MOL     -0.084011
     81 C28         8.0330    3.7650   -2.2350 c3        1 MOL      0.008741
     82 C29         9.2430    4.3030   -2.9120 c         1 MOL      0.573093
     83 N8          9.9110    3.5300   -3.7680 n         1 MOL     -0.794457
     84 O15         9.7890    5.4070   -2.6730 o         1 MOL     -0.587725
     85 H33         6.3930    1.8810   -1.2640 hn        1 MOL      0.016460
     86 H34         5.4220    3.7820   -0.8520 h1        1 MOL      0.075204
     87 H35         8.2900    4.7720   -0.4060 hc        1 MOL      0.019005
     88 H36         7.0570    5.4560   -1.4720 hc        1 MOL      0.019005
     89 H37         7.2220    3.6180   -2.9400 hc        1 MOL      0.045546
     90 H38         8.3660    2.7670   -1.9490 hc        1 MOL      0.045546
     91 H39         9.5550    2.5970   -3.9580 hn        1 MOL      0.359480
     92 H40        10.8340    3.8850   -3.9460 hn        1 MOL      0.359480
     93 N9          5.5920    3.4670    2.0550 n         1 MOL      0.028731
     94 C30         5.0250    3.7740    3.4520 c3        1 MOL     -0.098652
     95 C31         3.4910    3.7410    3.4950 c         1 MOL      0.388942
     96 O16         2.8400    4.0620    4.4860 o         1 MOL     -0.514658
     97 C32         5.4350    2.6560    4.4840 c3        1 MOL      0.256157
     98 C33         5.1460    1.1930    3.9830 c3        1 MOL     -0.287492
     99 C34         6.8550    2.7930    4.9320 c3        1 MOL     -0.287492
    100 H41         5.5090    2.5220    1.7020 hn        1 MOL      0.097842
    101 H42         5.4320    4.6880    3.8870 h1        1 MOL      0.097403
    102 H43         4.9000    2.8610    5.4050 hc        1 MOL      0.009997
    103 H44         5.5280    0.5130    4.7460 hc        1 MOL      0.059104
    104 H45         4.0960    0.9670    3.8380 hc        1 MOL      0.059104
    105 H46         5.6720    0.9290    3.0590 hc        1 MOL      0.059104
    106 H47         7.0870    3.7330    5.4310 hc        1 MOL      0.059104
    107 H48         6.9990    2.0420    5.7120 hc        1 MOL      0.059104
    108 H49         7.5020    2.7810    4.0570 hc        1 MOL      0.059104
    109 N10         2.9230    3.1550    2.4070 n         1 MOL     -0.311566
    110 C35         1.4500    3.0490    2.1610 c3        1 MOL      0.233780
    111 C36         1.1260    3.7450    0.8460 c         1 MOL      0.513456
    112 O17         2.0470    4.0790    0.0930 o         1 MOL     -0.497790
    113 C37         1.0350    1.5620    2.2850 c3        1 MOL     -0.183556
    114 C38         1.3620    0.9450    3.6130 c         1 MOL      0.776608
    115 N11         1.8770   -0.2700    3.6390 n         1 MOL     -0.880979
    116 O18         1.1150    1.4790    4.6510 o         1 MOL     -0.563221
    117 H50         3.4720    2.8330    1.6150 hn        1 MOL      0.151441
    118 H51         0.9810    3.5530    3.0110 h1        1 MOL      0.018967
    119 H52         1.3880    0.9500    1.4600 hc        1 MOL      0.049246
    120 H53        -0.0490    1.5170    2.2040 hc        1 MOL      0.049246
    121 H54         2.1720   -0.8630    2.8750 hn        1 MOL      0.353053
    122 H55         2.2950   -0.5490    4.5100 hn        1 MOL      0.353053
    123 N12        -0.1620    3.9640    0.6050 n         1 MOL     -0.509190
    124 C39        -0.8320    4.5730   -0.5120 c3        1 MOL     -0.004143
    125 C40        -2.2920    4.7630   -0.0490 c         1 MOL      0.560469
    126 O19        -2.8430    4.0040    0.7250 o         1 MOL     -0.520158
    127 C41        -0.6610    3.6770   -1.8060 c3        1 MOL     -0.272505
    128 C42        -1.3500    2.3630   -1.6070 ca        1 MOL      0.096162
    129 C43        -0.6460    1.3320   -0.9340 ca        1 MOL     -0.149263
    130 C44        -2.6830    2.2220   -1.9550 ca        1 MOL     -0.149263
    131 C45        -1.2900    0.1640   -0.6080 ca        1 MOL     -0.250319
    132 C46        -3.2810    0.9280   -1.7260 ca        1 MOL     -0.250319
    133 C47        -2.5750   -0.1150   -1.0650 ca        1 MOL      0.297082
    134 O20        -3.0890   -1.3880   -0.9200 oh        1 MOL     -0.433256
    135 H56        -0.8590    3.7900    1.3190 hn        1 MOL      0.282598
    136 H57        -0.3840    5.5240   -0.8120 h1        1 MOL      0.109058
    137 H58         0.4090    3.4810   -1.8440 hc        1 MOL      0.133494
    138 H59        -0.9260    4.1940   -2.7310 hc        1 MOL      0.133494
    139 H60         0.3890    1.5220   -0.6940 ha        1 MOL      0.148421
    140 H61        -3.1550    3.0700   -2.4370 ha        1 MOL      0.148421
    141 H62        -0.7070   -0.5650   -0.0660 ha        1 MOL      0.168301
    142 H63        -4.3010    0.7660   -2.0370 ha        1 MOL      0.168301
    143 H64        -2.5160   -1.8490   -0.2990 ho        1 MOL      0.324174
    144 N13        -2.9250    5.8030   -0.5580 n         1 MOL     -0.508411
    145 C48        -4.2590    6.2350   -0.3420 c3        1 MOL      0.323271
    146 C49        -5.1180    5.8780   -1.5960 c         1 MOL      0.522720
    147 O21        -5.0980    6.5200   -2.5960 o         1 MOL     -0.534649
    148 C50        -4.3390    7.7680   -0.1340 c3        1 MOL     -0.066397
    149 C51        -5.8310    8.1830    0.1010 c3        1 MOL     -0.267286
    150 C52        -5.9460    9.7220    0.2970 c         1 MOL      0.786496
    151 O22        -5.6830   10.2310    1.4020 o         1 MOL     -0.707159
    152 O23        -6.4350   10.4040   -0.5930 o         1 MOL     -0.707159
    153 H65        -2.3720    6.5550   -0.9470 hn        1 MOL      0.252589
    154 H66        -4.6940    5.7440    0.5270 h1        1 MOL     -0.009731
    155 H67        -3.8280    8.4230   -0.8410 hc        1 MOL      0.019267
    156 H68        -3.7570    7.8130    0.7880 hc        1 MOL      0.019267
    157 H69        -6.1690    7.6700    1.0010 hc        1 MOL      0.048605
    158 H70        -6.4050    7.8260   -0.7480 hc        1 MOL      0.048605
    159 N14        -5.8510    4.7620   -1.4880 n         1 MOL     -0.441547
    160 C53        -5.8460    3.6360   -0.5140 c3        1 MOL     -0.322795
    161 C54        -6.5700    3.9310    0.7930 c         1 MOL      0.621863
    162 O24        -7.7190    4.3540    0.8180 o         1 MOL     -0.560300
    163 C55        -6.6660    2.5390   -1.2110 c3        1 MOL      0.444134
    164 C56        -6.7620    1.1320   -0.5340 c3        1 MOL     -0.505218
    165 C57        -7.6470    0.1500   -1.3110 c         1 MOL      0.613409
    166 O25        -7.7350    0.1740   -2.5880 o         1 MOL     -0.633308
    167 O26        -8.2060   -0.8340   -0.7110 o         1 MOL     -0.633308
    168 H71        -6.4430    4.6970   -2.2970 hn        1 MOL      0.266498
    169 H72        -4.8570    3.2350   -0.3160 h1        1 MOL      0.099015
    170 H73        -6.2350    2.3590   -2.1910 hc        1 MOL     -0.040559
    171 H74        -7.6980    2.8680   -1.3250 hc        1 MOL     -0.040559
    172 H75        -7.2540    1.3380    0.4180 hc        1 MOL      0.089063
    173 H76        -5.7350    0.7550   -0.5040 hc        1 MOL      0.089063
    174 N15        -5.9540    3.5960    1.9220 n         1 MOL     -0.209181
    175 C58        -6.3960    3.4770    3.3370 c3        1 MOL     -0.322363
    176 H77        -5.8100    2.7050    3.8360 h1        1 MOL      0.121828
    177 H78        -6.2490    4.4300    3.8450 h1        1 MOL      0.121828
    178 H79        -7.4520    3.2060    3.3670 h1        1 MOL      0.121828
    179 H80        -4.9840    3.3220    1.8510 hn        1 MOL      0.221095
    180 Ca1        -8.3020   -3.3490   -0.6090 Ca        1 MOL      1.710211
    181 O27       -10.9690   -2.7840   -0.0710 oh        1 MOL     -0.834140
    182 H81       -11.5610   -2.5860   -0.7920 ho        1 MOL      0.393489
    183 H82       -11.3650   -3.5420    0.3680 ho        1 MOL      0.393489
    184 O28        -9.9050   -3.0190   -2.8360 oh        1 MOL     -0.834140
    185 H83       -10.7810   -3.4230   -2.8920 ho        1 MOL      0.393489
    186 H84        -9.9730   -2.2360   -3.3830 ho        1 MOL      0.393489
    187 O29        -7.6740   -2.6500    1.8040 oh        1 MOL     -0.834140
    188 H85        -6.8330   -2.7760    2.2690 ho        1 MOL      0.393489
    189 H86        -8.1410   -1.9980    2.3290 ho        1 MOL      0.393489
    190 O30        -7.1050   -5.7200    0.1820 oh        1 MOL     -0.834140
    191 H87        -6.2580   -6.0660    0.4710 ho        1 MOL      0.393489
    192 H88        -7.3330   -6.2630   -0.5810 ho        1 MOL      0.393489
    193 O31        -5.5240   -2.8470   -0.4950 oh        1 MOL     -0.834140
    194 H89        -4.7830   -2.2440   -0.3470 ho        1 MOL      0.393489
    195 H90        -5.1240   -3.6390   -0.8270 ho        1 MOL      0.393489
    196 O32       -10.1490   -5.6040   -0.4720 oh        1 MOL     -0.834140
    197 H91       -10.5130   -6.4870   -0.5980 ho        1 MOL      0.393489
    198 H92        -9.8920   -5.5930    0.4470 ho        1 MOL      0.393489
    199 O33        -7.1990   -4.3480   -2.6970 oh        1 MOL     -0.834140
    200 H93        -6.3110   -4.5330   -2.3920 ho        1 MOL      0.393489
    201 H94        -7.2640   -4.8450   -3.5220 ho        1 MOL      0.393489
@<TRIPOS>BOND
     1    1    2 1   
     2    1    4 1   
     3    1    5 1   
     4    1    6 1   
     5    2    3 2   
     6    2    7 1   
     7    7    8 1   
     8    7   15 1   
     9    8    9 1   
    10    8   11 1   
    11    8   16 1   
    12    9   10 2   
    13    9   19 1   
    14   11   12 1   
    15   11   17 1   
    16   11   18 1   
    17   12   13 1   
    18   12   14 1   
    19   19   20 1   
    20   19   27 1   
    21   20   21 1   
    22   20   23 1   
    23   20   28 1   
    24   21   22 2   
    25   21   38 1   
    26   23   24 1   
    27   23   25 1   
    28   23   29 1   
    29   24   26 1   
    30   24   30 1   
    31   24   31 1   
    32   25   32 1   
    33   25   33 1   
    34   25   34 1   
    35   26   35 1   
    36   26   36 1   
    37   26   37 1   
    38   38   39 1   
    39   38   46 1   
    40   39   40 1   
    41   39   42 1   
    42   39   47 1   
    43   40   41 2   
    44   40   50 1   
    45   42   43 1   
    46   42   48 1   
    47   42   49 1   
    48   43   44 1   
    49   43   45 1   
    50   50   51 1   
    51   50   54 1   
    52   51   52 1   
    53   51   55 1   
    54   51   56 1   
    55   52   53 2   
    56   52   57 1   
    57   57   58 1   
    58   57   65 1   
    59   58   59 1   
    60   58   61 1   
    61   58   66 1   
    62   59   60 2   
    63   59   69 1   
    64   61   62 1   
    65   61   67 1   
    66   61   68 1   
    67   62   63 1   
    68   62   64 1   
    69   69   70 1   
    70   69   73 1   
    71   70   71 1   
    72   70   74 1   
    73   70   75 1   
    74   71   72 2   
    75   71   76 1   
    76   76   77 1   
    77   76   85 1   
    78   77   78 1   
    79   77   80 1   
    80   77   86 1   
    81   78   79 2   
    82   78   93 1   
    83   80   81 1   
    84   80   87 1   
    85   80   88 1   
    86   81   82 1   
    87   81   89 1   
    88   81   90 1   
    89   82   83 1   
    90   82   84 2   
    91   83   91 1   
    92   83   92 1   
    93   93   94 1   
    94   93  100 1   
    95   94   95 1   
    96   94   97 1   
    97   94  101 1   
    98   95   96 2   
    99   95  109 1   
   100   97   98 1   
   101   97   99 1   
   102   97  102 1   
   103   98  103 1   
   104   98  104 1   
   105   98  105 1   
   106   99  106 1   
   107   99  107 1   
   108   99  108 1   
   109  109  110 1   
   110  109  117 1   
   111  110  111 1   
   112  110  113 1   
   113  110  118 1   
   114  111  112 2   
   115  111  123 1   
   116  113  114 1   
   117  113  119 1   
   118  113  120 1   
   119  114  115 1   
   120  114  116 2   
   121  115  121 1   
   122  115  122 1   
   123  123  124 1   
   124  123  135 1   
   125  124  125 1   
   126  124  127 1   
   127  124  136 1   
   128  125  126 2   
   129  125  144 1   
   130  127  128 1   
   131  127  137 1   
   132  127  138 1   
   133  128  129 ar  
   134  128  130 ar  
   135  129  131 ar  
   136  129  139 1   
   137  130  132 ar  
   138  130  140 1   
   139  131  133 ar  
   140  131  141 1   
   141  132  133 ar  
   142  132  142 1   
   143  133  134 1   
   144  134  143 1   
   145  144  145 1   
   146  144  153 1   
   147  145  146 1   
   148  145  148 1   
   149  145  154 1   
   150  146  147 2   
   151  146  159 1   
   152  148  149 1   
   153  148  155 1   
   154  148  156 1   
   155  149  150 1   
   156  149  157 1   
   157  149  158 1   
   158  150  151 1   
   159  150  152 1   
   160  159  160 1   
   161  159  168 1   
   162  160  161 1   
   163  160  163 1   
   164  160  169 1   
   165  161  162 2   
   166  161  174 1   
   167  163  164 1   
   168  163  170 1   
   169  163  171 1   
   170  164  165 1   
   171  164  172 1   
   172  164  173 1   
   173  165  166 1   
   174  165  167 1   
   175  174  175 1   
   176  174  179 1   
   177  175  176 1   
   178  175  177 1   
   179  175  178 1   
   180  181  182 1   
   181  181  183 1   
   182  184  185 1   
   183  184  186 1   
   184  187  188 1   
   185  187  189 1   
   186  190  191 1   
   187  190  192 1   
   188  193  194 1   
   189  193  195 1   
   190  196  197 1   
   191  196  198 1   
   192  199  200 1   
   193  199  201 1   
@<TRIPOS>SUBSTRUCTURE
     1 MOL         1 TEMP              0 ****  ****    0 ROOT
