@<TRIPOS>MOLECULE
MOL
  186   183     1     0     0
SMALL
resp


@<TRIPOS>ATOM
      1 C1        -11.3570    4.1630    4.4290 c3        1 MOL     -0.187062
      2 C2        -11.2560    3.3430    3.1610 c         1 MOL      0.827369
      3 O1        -11.4380    2.1200    3.2080 o         1 MOL     -0.612254
      4 H1        -10.6870    5.0210    4.3610 hc        1 MOL      0.036563
      5 H2        -12.3810    4.5110    4.5570 hc        1 MOL      0.036563
      6 H3        -11.0720    3.5490    5.2830 hc        1 MOL      0.036563
      7 N1        -10.8740    3.9480    2.0080 n         1 MOL     -0.520893
      8 C3        -10.8650    3.2620    0.7460 c3        1 MOL     -0.417044
      9 C4         -9.5670    2.3650    0.5170 c         1 MOL      0.875964
     10 O2         -8.4820    2.7630    0.9080 o         1 MOL     -0.753887
     11 C5        -10.9680    4.2030   -0.4590 c3        1 MOL      0.179312
     12 C6        -10.0130    5.3530   -0.5720 c         1 MOL      0.714943
     13 O3         -9.0540    5.3670    0.2360 o         1 MOL     -0.733767
     14 O4        -10.2980    6.2900   -1.3700 o         1 MOL     -0.733767
     15 H4        -10.8400    4.9560    1.9560 hn        1 MOL      0.256994
     16 H5        -11.7050    2.5820    0.6390 h1        1 MOL      0.131474
     17 H6        -12.0080    4.5360   -0.4660 hc        1 MOL      0.015148
     18 H7        -10.8510    3.6890   -1.4200 hc        1 MOL      0.015148
     19 N2         -9.6960    1.2230   -0.1250 n         1 MOL     -0.434135
     20 C7         -8.8760    0.0370    0.0480 c3        1 MOL     -0.182066
     21 C8         -7.3640    0.0820   -0.3770 c         1 MOL      0.667391
     22 O5         -6.6620   -0.9150   -0.1460 o         1 MOL     -0.541762
     23 C9         -9.5730   -1.1500   -0.6530 c3        1 MOL     -0.246208
     24 C10        -9.5880   -1.1230   -2.1900 c3        1 MOL     -0.033438
     25 C11       -10.2870   -2.2520   -2.8850 c3        1 MOL     -0.037387
     26 C12        -9.4920   -3.5090   -2.9200 c3        1 MOL      0.253629
     27 N3        -10.3070   -4.7800   -3.1650 n4        1 MOL     -0.494383
     28 H8        -10.6080    1.0650   -0.5440 hn        1 MOL      0.250381
     29 H9         -8.7660   -0.1240    1.1230 h1        1 MOL      0.188871
     30 H10       -10.6170   -1.2130   -0.3570 hc        1 MOL      0.092883
     31 H11        -9.2590   -2.0980   -0.2060 hc        1 MOL      0.092883
     32 H12        -8.6150   -0.8440   -2.6020 hc        1 MOL      0.051886
     33 H13       -10.2250   -0.2460   -2.3150 hc        1 MOL      0.051886
     34 H14       -10.5620   -1.9580   -3.8950 hc        1 MOL      0.020014
     35 H15       -11.2060   -2.4840   -2.3360 hc        1 MOL      0.020014
     36 H16        -8.7750   -3.6620   -2.1100 hx        1 MOL      0.046739
     37 H17        -8.8800   -3.3840   -3.8060 hx        1 MOL      0.046739
     38 H18        -9.6920   -5.5410   -3.3960 hn        1 MOL      0.342038
     39 H19       -10.7830   -5.0620   -2.3190 hn        1 MOL      0.342038
     40 H20       -10.9340   -4.7190   -3.9550 hn        1 MOL      0.342038
     41 N4         -6.8350    1.1690   -0.9180 n         1 MOL     -0.232353
     42 C13        -5.3480    1.3020   -1.1420 c3        1 MOL     -0.105520
     43 C14        -4.6610    1.5640    0.1940 c         1 MOL      0.413227
     44 O6         -5.1190    2.2170    1.0890 o         1 MOL     -0.533741
     45 C15        -5.0200    2.3900   -2.1810 c3        1 MOL     -0.013411
     46 C16        -5.7640    3.7380   -1.9940 c         1 MOL      0.490234
     47 O7         -5.4820    4.5450   -2.8630 o         1 MOL     -0.614796
     48 O8         -6.7260    3.9850   -1.2930 o         1 MOL     -0.614796
     49 H21        -7.3040    2.0630   -0.7930 hn        1 MOL      0.148805
     50 H22        -4.9290    0.4210   -1.6250 h1        1 MOL      0.067448
     51 H23        -5.2670    1.9760   -3.1550 hc        1 MOL      0.059261
     52 H24        -3.9350    2.5200   -2.0660 hc        1 MOL      0.059261
     53 N5         -3.3620    1.1110    0.3620 n         1 MOL     -0.392865
     54 C17        -2.6400    0.0410   -0.3820 c3        1 MOL     -0.050018
     55 C18        -3.3410   -1.3470   -0.3670 c         1 MOL      0.850673
     56 O9         -3.7550   -1.8390    0.6910 o         1 MOL     -0.628848
     57 H25        -2.8930    1.4790    1.1720 hn        1 MOL      0.275929
     58 H26        -1.6400   -0.1300    0.0240 h1        1 MOL      0.032000
     59 H27        -2.5020    0.2950   -1.4370 h1        1 MOL      0.032000
     60 N6         -3.3750   -2.0370   -1.4850 n         1 MOL     -0.682581
     61 C19        -4.2780   -3.2110   -1.5740 c3        1 MOL      0.150558
     62 C20        -3.4030   -4.4090   -1.2190 c         1 MOL      0.636430
     63 O10        -2.3850   -4.6880   -1.8020 o         1 MOL     -0.537572
     64 C21        -5.0130   -3.1520   -2.9060 c3        1 MOL     -0.372551
     65 C22        -6.0220   -4.2700   -3.2330 c         1 MOL      0.793214
     66 O11        -6.4020   -5.0370   -2.3450 o         1 MOL     -0.745678
     67 O12        -6.3630   -4.4300   -4.4380 o         1 MOL     -0.745678
     68 H28        -2.9570   -1.7140   -2.3540 hn        1 MOL      0.323737
     69 H29        -5.0380   -3.0610   -0.7990 h1        1 MOL      0.024360
     70 H30        -4.3050   -3.2900   -3.7190 hc        1 MOL      0.101140
     71 H31        -5.4100   -2.1440   -3.0370 hc        1 MOL      0.101140
     72 N7         -3.9100   -5.2220   -0.3250 n         1 MOL     -0.256967
     73 C23        -3.3160   -6.3700    0.3640 c3        1 MOL     -0.372181
     74 C24        -2.0300   -6.1570    1.1610 c         1 MOL      0.599018
     75 O13        -1.4730   -7.0130    1.8060 o         1 MOL     -0.557060
     76 H32        -4.7900   -4.9410    0.0790 hn        1 MOL      0.256481
     77 H33        -3.1280   -7.1170   -0.4110 h1        1 MOL      0.163436
     78 H34        -4.1010   -6.7990    0.9720 h1        1 MOL      0.163436
     79 N8         -1.5780   -4.8970    1.1230 n         1 MOL     -0.070208
     80 C25        -0.3190   -4.4310    1.5800 c3        1 MOL     -0.093162
     81 C26         0.1230   -3.0760    0.9640 c         1 MOL      0.813369
     82 O14        -0.6870   -2.3650    0.3990 o         1 MOL     -0.551635
     83 C27        -0.2690   -4.2200    3.1320 c3        1 MOL      0.297014
     84 C28        -1.3360   -3.3250    3.7480 c3        1 MOL     -0.074120
     85 O15        -0.3160   -5.5030    3.6980 oh        1 MOL     -0.648134
     86 H35        -1.9580   -4.2990    0.4090 hn        1 MOL     -0.028142
     87 H36         0.4330   -5.1590    1.2780 h1        1 MOL      0.032567
     88 H37         0.6940   -3.7980    3.4100 h1        1 MOL      0.003979
     89 H38        -0.4920   -6.1570    3.0240 ho        1 MOL      0.390084
     90 H39        -1.2980   -2.3080    3.3440 hc        1 MOL      0.022491
     91 H40        -2.2860   -3.8290    3.6350 hc        1 MOL      0.022491
     92 H41        -1.2230   -3.2410    4.8260 hc        1 MOL      0.022491
     93 N9          1.4080   -2.7660    1.1090 n         1 MOL     -0.845224
     94 C29         2.0090   -1.4520    0.6660 c3        1 MOL      0.279801
     95 C30         3.3780   -1.5810   -0.0510 c         1 MOL      0.544632
     96 O16         3.7830   -0.7530   -0.8360 o         1 MOL     -0.514062
     97 C31         1.8050   -0.4840    1.8610 c3        1 MOL     -0.086685
     98 C32         2.1850    0.9670    1.4670 c3        1 MOL      0.023371
     99 C33         2.6940   -0.9540    3.0930 c3        1 MOL     -0.376936
    100 C34         1.2460    1.5910    0.4070 c3        1 MOL     -0.395977
    101 H42         2.0530   -3.4980    1.3500 hn        1 MOL      0.342457
    102 H43         1.4700   -1.1160   -0.2210 h1        1 MOL      0.051163
    103 H44         0.7490   -0.5660    2.1480 hc        1 MOL      0.146883
    104 H45         3.2010    1.0480    1.0860 hc        1 MOL      0.037747
    105 H46         2.1070    1.6140    2.3380 hc        1 MOL      0.037747
    106 H47         2.8270   -0.0870    3.7270 hc        1 MOL      0.100635
    107 H48         2.0560   -1.6430    3.6600 hc        1 MOL      0.100635
    108 H49         3.6660   -1.3380    2.8010 hc        1 MOL      0.100635
    109 H50         1.6020    2.6020    0.2440 hc        1 MOL      0.104512
    110 H51         1.3470    0.9770   -0.4870 hc        1 MOL      0.104512
    111 H52         0.2160    1.4710    0.7670 hc        1 MOL      0.104512
    112 N10         4.0060   -2.7390    0.2450 n         1 MOL     -0.467235
    113 C35         5.3230   -3.1190   -0.2890 c3        1 MOL     -0.073552
    114 C36         6.3600   -3.0780    0.7920 c         1 MOL      0.744947
    115 O17         6.3020   -3.7650    1.7940 o         1 MOL     -0.541277
    116 C37         5.2710   -4.4990   -0.9950 c3        1 MOL      0.289255
    117 C38         6.6170   -5.0060   -1.5790 c3        1 MOL     -0.282123
    118 O18         4.8540   -5.4630   -0.0450 oh        1 MOL     -0.597330
    119 H53         3.4910   -3.3690    0.8380 hn        1 MOL      0.277778
    120 H54         5.6060   -2.5080   -1.1470 h1        1 MOL      0.099986
    121 H55         4.5530   -4.3970   -1.7990 h1        1 MOL      0.040657
    122 H56         4.4880   -6.2020   -0.5350 ho        1 MOL      0.394312
    123 H57         6.7750   -4.4650   -2.5170 hc        1 MOL      0.076019
    124 H58         7.4520   -4.8960   -0.8860 hc        1 MOL      0.076019
    125 H59         6.5910   -6.0480   -1.8850 hc        1 MOL      0.076019
    126 N11         7.4280   -2.3170    0.6330 n         1 MOL     -0.625860
    127 C39         8.6950   -2.3630    1.4920 c3        1 MOL      0.054254
    128 C40         9.3580   -0.9890    1.7650 c         1 MOL      0.639500
    129 O19         9.6490   -0.6190    2.8790 o         1 MOL     -0.550402
    130 C41         9.7260   -3.3150    0.8690 c3        1 MOL      0.353677
    131 C42        11.1390   -3.2310    1.5390 c3        1 MOL     -0.471564
    132 O20         9.8540   -3.0080   -0.5100 oh        1 MOL     -0.599991
    133 H60         7.4640   -1.7490   -0.2000 hn        1 MOL      0.283734
    134 H61         8.4980   -2.6820    2.5140 h1        1 MOL      0.071225
    135 H62         9.2220   -4.2890    0.8970 h1        1 MOL      0.019140
    136 H63         9.3750   -3.6490   -1.0450 ho        1 MOL      0.355770
    137 H64        10.9590   -3.4250    2.5900 hc        1 MOL      0.131720
    138 H65        11.7090   -4.0290    1.0570 hc        1 MOL      0.131720
    139 H66        11.6150   -2.2550    1.4350 hc        1 MOL      0.131720
    140 N12         9.5450   -0.2240    0.6870 n         1 MOL     -0.455790
    141 C43        10.1580    1.1460    0.6610 c3        1 MOL     -0.020833
    142 C44         9.7380    2.0660   -0.5400 c         1 MOL      0.607322
    143 O21         9.4940    1.6280   -1.6510 o         1 MOL     -0.500517
    144 C45        11.6810    1.0460    0.6330 c3        1 MOL     -0.231380
    145 C46        12.1860    0.3270   -0.5910 c3        1 MOL      0.128368
    146 C47        13.7230    0.5210   -0.7800 c3        1 MOL      0.037880
    147 C48        14.1890   -0.2900   -1.8900 c3        1 MOL      0.111166
    148 N13        15.6760   -0.1580   -1.9170 n4        1 MOL     -0.332657
    149 H67         9.2420   -0.5580   -0.2240 hn        1 MOL      0.246777
    150 H68         9.8370    1.5940    1.6050 h1        1 MOL      0.107625
    151 H69        11.9210    0.4890    1.5420 hc        1 MOL      0.082058
    152 H70        12.1020    2.0460    0.7210 hc        1 MOL      0.082058
    153 H71        11.7290    0.6980   -1.5060 hc        1 MOL     -0.002955
    154 H72        11.8740   -0.7120   -0.4940 hc        1 MOL     -0.002955
    155 H73        14.1000    0.1920    0.1900 hc        1 MOL      0.001704
    156 H74        13.9950    1.5520   -0.9930 hc        1 MOL      0.001704
    157 H75        13.7530    0.0060   -2.8380 hx        1 MOL      0.056049
    158 H76        13.8590   -1.3020   -1.6610 hx        1 MOL      0.056049
    159 H77        15.9410    0.7940   -2.1260 hn        1 MOL      0.264416
    160 H78        16.1230   -0.5020   -1.0900 hn        1 MOL      0.264416
    161 H79        16.1490   -0.5590   -2.7180 hn        1 MOL      0.264416
    162 N14         9.6910    3.3620   -0.2210 n         1 MOL     -0.666503
    163 C49         9.1700    4.4700   -0.9940 c3        1 MOL      0.522128
    164 C50         7.6730    4.4000   -1.1340 c         1 MOL      0.260471
    165 O22         7.1820    4.3690   -2.2680 o         1 MOL     -0.527224
    166 C51         9.6560    5.8170   -0.5870 c3        1 MOL     -0.112847
    167 C52         9.0990    7.0040   -1.3320 c3        1 MOL     -0.103080
    168 C53         9.9160    8.3280   -1.1450 c         1 MOL      0.667745
    169 O23        10.2260    8.9580   -2.1940 o         1 MOL     -0.653429
    170 O24        10.2290    8.6890    0.0560 o         1 MOL     -0.653429
    171 H80         9.9530    3.5360    0.7350 hn        1 MOL      0.295472
    172 H81         9.5210    4.2650   -2.0040 h1        1 MOL     -0.006665
    173 H82        10.7450    5.8570   -0.5860 hc        1 MOL      0.006090
    174 H83         9.3320    5.7620    0.4620 hc        1 MOL      0.006090
    175 H84         8.0780    7.1950   -1.0270 hc        1 MOL      0.024176
    176 H85         9.1540    6.7690   -2.3950 hc        1 MOL      0.024176
    177 N15         6.8190    4.1390   -0.1290 n         1 MOL     -0.255875
    178 C54         7.1080    4.2050    1.3070 c3        1 MOL     -0.067700
    179 H86         8.1560    4.4640    1.4550 h1        1 MOL      0.053345
    180 H87         6.4780    4.9630    1.7710 h1        1 MOL      0.053345
    181 H88         6.9070    3.2350    1.7630 h1        1 MOL      0.053345
    182 H89         5.8840    3.9610   -0.4830 hn        1 MOL      0.278473
    183 Ca1        -6.8050    4.7620    1.1560 Ca        1 MOL      1.675333
    184 O25        -7.2120    3.4900    3.5010 oh        1 MOL     -0.730929
    185 H90        -6.7250    3.8360    4.2530 ho        1 MOL      0.381211
    186 H91        -8.0820    3.2940    3.8440 ho        1 MOL      0.381211
@<TRIPOS>BOND
     1    1    2 1   
     2    1    4 1   
     3    1    5 1   
     4    1    6 1   
     5    2    3 2   
     6    2    7 1   
     7    7    8 1   
     8    7   15 1   
     9    8    9 1   
    10    8   11 1   
    11    8   16 1   
    12    9   10 2   
    13    9   19 1   
    14   11   12 1   
    15   11   17 1   
    16   11   18 1   
    17   12   13 1   
    18   12   14 1   
    19   19   20 1   
    20   19   28 1   
    21   20   21 1   
    22   20   23 1   
    23   20   29 1   
    24   21   22 2   
    25   21   41 1   
    26   23   24 1   
    27   23   30 1   
    28   23   31 1   
    29   24   25 1   
    30   24   32 1   
    31   24   33 1   
    32   25   26 1   
    33   25   34 1   
    34   25   35 1   
    35   26   27 1   
    36   26   36 1   
    37   26   37 1   
    38   27   38 1   
    39   27   39 1   
    40   27   40 1   
    41   41   42 1   
    42   41   49 1   
    43   42   43 1   
    44   42   45 1   
    45   42   50 1   
    46   43   44 2   
    47   43   53 1   
    48   45   46 1   
    49   45   51 1   
    50   45   52 1   
    51   46   47 1   
    52   46   48 1   
    53   53   54 1   
    54   53   57 1   
    55   54   55 1   
    56   54   58 1   
    57   54   59 1   
    58   55   56 2   
    59   55   60 1   
    60   60   61 1   
    61   60   68 1   
    62   61   62 1   
    63   61   64 1   
    64   61   69 1   
    65   62   63 2   
    66   62   72 1   
    67   64   65 1   
    68   64   70 1   
    69   64   71 1   
    70   65   66 1   
    71   65   67 1   
    72   72   73 1   
    73   72   76 1   
    74   73   74 1   
    75   73   77 1   
    76   73   78 1   
    77   74   75 2   
    78   74   79 1   
    79   79   80 1   
    80   79   86 1   
    81   80   81 1   
    82   80   83 1   
    83   80   87 1   
    84   81   82 2   
    85   81   93 1   
    86   83   84 1   
    87   83   85 1   
    88   83   88 1   
    89   84   90 1   
    90   84   91 1   
    91   84   92 1   
    92   85   89 1   
    93   93   94 1   
    94   93  101 1   
    95   94   95 1   
    96   94   97 1   
    97   94  102 1   
    98   95   96 2   
    99   95  112 1   
   100   97   98 1   
   101   97   99 1   
   102   97  103 1   
   103   98  100 1   
   104   98  104 1   
   105   98  105 1   
   106   99  106 1   
   107   99  107 1   
   108   99  108 1   
   109  100  109 1   
   110  100  110 1   
   111  100  111 1   
   112  112  113 1   
   113  112  119 1   
   114  113  114 1   
   115  113  116 1   
   116  113  120 1   
   117  114  115 2   
   118  114  126 1   
   119  116  117 1   
   120  116  118 1   
   121  116  121 1   
   122  117  123 1   
   123  117  124 1   
   124  117  125 1   
   125  118  122 1   
   126  126  127 1   
   127  126  133 1   
   128  127  128 1   
   129  127  130 1   
   130  127  134 1   
   131  128  129 2   
   132  128  140 1   
   133  130  131 1   
   134  130  132 1   
   135  130  135 1   
   136  131  137 1   
   137  131  138 1   
   138  131  139 1   
   139  132  136 1   
   140  140  141 1   
   141  140  149 1   
   142  141  142 1   
   143  141  144 1   
   144  141  150 1   
   145  142  143 2   
   146  142  162 1   
   147  144  145 1   
   148  144  151 1   
   149  144  152 1   
   150  145  146 1   
   151  145  153 1   
   152  145  154 1   
   153  146  147 1   
   154  146  155 1   
   155  146  156 1   
   156  147  148 1   
   157  147  157 1   
   158  147  158 1   
   159  148  159 1   
   160  148  160 1   
   161  148  161 1   
   162  162  163 1   
   163  162  171 1   
   164  163  164 1   
   165  163  166 1   
   166  163  172 1   
   167  164  165 2   
   168  164  177 1   
   169  166  167 1   
   170  166  173 1   
   171  166  174 1   
   172  167  168 1   
   173  167  175 1   
   174  167  176 1   
   175  168  169 1   
   176  168  170 1   
   177  177  178 1   
   178  177  182 1   
   179  178  179 1   
   180  178  180 1   
   181  178  181 1   
   182  184  185 1   
   183  184  186 1   
@<TRIPOS>SUBSTRUCTURE
     1 MOL         1 TEMP              0 ****  ****    0 ROOT
