@<TRIPOS>MOLECULE
MOL
  188   182     1     0     0
SMALL
resp


@<TRIPOS>ATOM
      1 C1          3.7180   -0.2750   -4.8870 c3        1 MOL     -0.378479
      2 C2          4.6980   -0.4380   -3.7060 c         1 MOL      0.618135
      3 O1          4.3720   -0.3890   -2.5500 o         1 MOL     -0.541578
      4 H1          4.1920   -0.6280   -5.8030 hc        1 MOL      0.097505
      5 H2          2.8180   -0.8590   -4.6960 hc        1 MOL      0.097505
      6 H3          3.4530    0.7760   -4.9970 hc        1 MOL      0.097505
      7 N1          5.9860   -0.6750   -4.0440 n         1 MOL     -0.415437
      8 C3          7.1840   -0.6750   -3.1810 c3        1 MOL     -0.087867
      9 C4          7.4530    0.6580   -2.5030 c         1 MOL      0.538074
     10 O2          8.5860    0.8750   -1.9990 o         1 MOL     -0.521375
     11 C5          7.2330   -1.7990   -2.1320 c3        1 MOL     -0.023650
     12 C6          7.0180   -3.2160   -2.5920 c         1 MOL      0.584024
     13 O3          7.9230   -3.7870   -3.1970 o         1 MOL     -0.617773
     14 O4          5.9180   -3.7980   -2.2960 o         1 MOL     -0.617773
     15 H4          6.2110   -0.3390   -4.9650 hn        1 MOL      0.275867
     16 H5          8.0520   -0.8650   -3.8170 h1        1 MOL      0.095108
     17 H6          6.5820   -1.5870   -1.2850 hc        1 MOL      0.029042
     18 H7          8.2070   -1.8110   -1.6460 hc        1 MOL      0.029042
     19 N2          6.4130    1.4940   -2.1980 n         1 MOL     -0.617983
     20 C7          6.5740    2.7040   -1.3310 c3        1 MOL      0.170707
     21 C8          5.3140    2.9850   -0.4230 c         1 MOL      0.508325
     22 O5          4.6260    4.0070   -0.5770 o         1 MOL     -0.483899
     23 C9          6.9370    4.0080   -2.1390 c3        1 MOL     -0.115233
     24 C10         7.5630    5.1950   -1.3410 c3        1 MOL     -0.126028
     25 C11         7.6040    6.4130   -2.2900 c3        1 MOL      0.124018
     26 C12         8.3080    7.5490   -1.4760 c3        1 MOL      0.027935
     27 N3          8.3590    8.7690   -2.3030 n4        1 MOL     -0.273236
     28 H8          5.4390    1.2450   -2.3330 hn        1 MOL      0.363264
     29 H9          7.4790    2.4800   -0.7610 h1        1 MOL      0.055292
     30 H10         6.0860    4.4690   -2.6470 hc        1 MOL      0.047526
     31 H11         7.6410    3.7270   -2.9180 hc        1 MOL      0.047526
     32 H12         8.5770    4.8870   -1.1030 hc        1 MOL      0.048322
     33 H13         6.9250    5.4800   -0.5000 hc        1 MOL      0.048322
     34 H14         6.6010    6.6350   -2.6500 hc        1 MOL     -0.001177
     35 H15         8.2520    6.1330   -3.1250 hc        1 MOL     -0.001177
     36 H16         9.3370    7.3040   -1.2090 hx        1 MOL      0.072667
     37 H17         7.6850    7.6980   -0.5970 hx        1 MOL      0.072667
     38 H18         8.7480    8.5730   -3.2200 hn        1 MOL      0.255198
     39 H19         7.4280    9.1330   -2.3460 hn        1 MOL      0.255198
     40 H20         8.9950    9.4850   -1.9670 hn        1 MOL      0.255198
     41 N4          4.9120    1.9960    0.3920 n         1 MOL     -0.648833
     42 C13         3.6950    1.9910    1.2650 c3        1 MOL      0.255895
     43 C14         3.9970    1.4210    2.6740 c         1 MOL      0.423749
     44 O6          4.9120    0.5750    2.7380 o         1 MOL     -0.516521
     45 C15         2.5290    1.1350    0.6020 c3        1 MOL      0.081541
     46 C16         1.1690    0.9700    1.3940 c         1 MOL      0.535202
     47 O7          1.0340    0.6510    2.6020 o         1 MOL     -0.664410
     48 O8          0.1620    1.1970    0.6720 o         1 MOL     -0.664410
     49 H21         5.5210    1.1890    0.4220 hn        1 MOL      0.369142
     50 H22         3.2450    2.9650    1.4540 h1        1 MOL     -0.011260
     51 H23         2.9190    0.1650    0.3200 hc        1 MOL      0.004026
     52 H24         2.2400    1.6420   -0.3290 hc        1 MOL      0.004026
     53 N5          3.3200    1.9420    3.7080 n         1 MOL     -0.360334
     54 C17         3.6050    1.6660    5.1330 c3        1 MOL     -0.227403
     55 C18         3.3470    0.1990    5.5510 c         1 MOL      0.566606
     56 O9          4.0180   -0.1620    6.5140 o         1 MOL     -0.548416
     57 H25         2.5950    2.5970    3.4390 hn        1 MOL      0.301410
     58 H26         3.0800    2.4220    5.7160 h1        1 MOL      0.135366
     59 H27         4.6530    1.8490    5.3730 h1        1 MOL      0.135366
     60 N6          2.4140   -0.5420    4.9210 n         1 MOL     -0.339581
     61 C19         2.1350   -1.9080    5.3520 c3        1 MOL     -0.025601
     62 C20         2.1460   -2.8790    4.1370 c         1 MOL      0.630681
     63 O10         2.2210   -4.0840    4.3640 o         1 MOL     -0.577132
     64 C21         0.6760   -1.9220    6.0710 c3        1 MOL     -0.054525
     65 C22        -0.5570   -1.8240    5.1760 c         1 MOL      0.534202
     66 N7         -1.5950   -2.5550    5.5010 n         1 MOL     -0.778060
     67 O11        -0.5770   -1.2490    4.1430 o         1 MOL     -0.508943
     68 H28         1.7820   -0.1140    4.2690 hn        1 MOL      0.190770
     69 H29         2.9190   -2.3130    5.9910 h1        1 MOL      0.110384
     70 H30         0.5580   -1.1200    6.8040 hc        1 MOL      0.025518
     71 H31         0.5770   -2.8270    6.6650 hc        1 MOL      0.025518
     72 H32        -1.6080   -3.0700    6.3710 hn        1 MOL      0.374370
     73 H33        -2.2250   -2.7470    4.7350 hn        1 MOL      0.374370
     74 N8          2.0750   -2.3290    2.9200 n         1 MOL     -0.342345
     75 C23         2.3670   -3.0230    1.6960 c3        1 MOL     -0.177190
     76 C24         1.0870   -3.4160    0.9900 c         1 MOL      0.693463
     77 O12         0.1100   -3.7970    1.6060 o         1 MOL     -0.548146
     78 H34         2.0890   -1.3230    2.8600 hn        1 MOL      0.236110
     79 H35         2.8890   -3.9600    1.8460 h1        1 MOL      0.123595
     80 H36         2.8920   -2.3360    1.0310 h1        1 MOL      0.123595
     81 N9          1.1080   -3.3300   -0.3730 n         1 MOL     -0.603773
     82 C25        -0.0280   -3.6480   -1.2880 c3        1 MOL      0.208162
     83 C26        -0.7890   -2.4220   -1.8890 c         1 MOL      0.327617
     84 O13        -0.1510   -1.3030   -1.8730 o         1 MOL     -0.480430
     85 C27         0.3800   -4.7100   -2.3860 c3        1 MOL     -0.038569
     86 C28         1.0570   -5.9660   -1.6750 ca        1 MOL     -0.157171
     87 C29         0.3920   -7.1900   -1.3590 ca        1 MOL      0.010704
     88 C30         2.4520   -5.9010   -1.2940 ca        1 MOL      0.010704
     89 C31         0.9430   -8.1380   -0.4590 ca        1 MOL     -0.311376
     90 C32         3.0130   -6.8640   -0.4260 ca        1 MOL     -0.311376
     91 C33         2.2470   -7.9590    0.0340 ca        1 MOL      0.346023
     92 O14         2.7440   -8.9340    0.8980 oh        1 MOL     -0.423665
     93 H37         1.9970   -3.2080   -0.8400 hn        1 MOL      0.385124
     94 H38        -0.7560   -4.1460   -0.6470 h1        1 MOL     -0.011007
     95 H39         1.2390   -4.3510   -2.9570 hc        1 MOL      0.071972
     96 H40        -0.3310   -4.9240   -3.1790 hc        1 MOL      0.071972
     97 H41        -0.6180   -7.3700   -1.7160 ha        1 MOL      0.049880
     98 H42         2.9660   -4.9730   -1.4910 ha        1 MOL      0.049880
     99 H43         0.3780   -9.0060   -0.1560 ha        1 MOL      0.169554
    100 H44         3.9660   -6.7620    0.0630 ha        1 MOL      0.169554
    101 H45         2.0210   -9.5370    1.0620 ho        1 MOL      0.302591
    102 N10        -2.0300   -2.5950   -2.3570 n         1 MOL     -0.458026
    103 C34        -2.8250   -1.5110   -2.9260 c3        1 MOL      0.022796
    104 C35        -4.0650   -1.2980   -2.0270 c         1 MOL      0.522303
    105 O15        -4.4120   -0.1870   -1.6090 o         1 MOL     -0.521925
    106 C36        -3.0130   -1.7560   -4.4200 c3        1 MOL      0.058503
    107 C37        -1.6000   -1.5390   -5.0810 c3        1 MOL     -0.009641
    108 C38        -4.0150   -0.7810   -5.0660 c3        1 MOL     -0.458758
    109 C39        -1.4970   -1.9490   -6.5770 c3        1 MOL     -0.464330
    110 H46        -2.5680   -3.4500   -2.2340 hn        1 MOL      0.279500
    111 H47        -2.2260   -0.6250   -2.7180 h1        1 MOL      0.108089
    112 H48        -3.2570   -2.8090   -4.5460 hc        1 MOL      0.017971
    113 H49        -0.7920   -1.9870   -4.5030 hc        1 MOL      0.102931
    114 H50        -1.3870   -0.4650   -5.0630 hc        1 MOL      0.102931
    115 H51        -4.9580   -0.7300   -4.5030 hc        1 MOL      0.134861
    116 H52        -3.6890    0.2510   -5.0220 hc        1 MOL      0.134861
    117 H53        -4.1630   -1.1410   -6.0850 hc        1 MOL      0.134861
    118 H54        -0.4750   -1.8370   -6.9330 hc        1 MOL      0.127113
    119 H55        -1.9100   -2.9470   -6.6790 hc        1 MOL      0.127113
    120 H56        -2.0690   -1.1760   -7.1030 hc        1 MOL      0.127113
    121 N11        -4.8050   -2.3550   -1.8620 n         1 MOL     -0.560862
    122 C40        -5.7490   -2.5500   -0.7480 c3        1 MOL      0.366165
    123 C41        -6.9490   -1.6120   -0.8630 c         1 MOL      0.035692
    124 O16        -7.6420   -1.1290    0.0300 o         1 MOL     -0.399164
    125 C42        -6.2520   -3.9940   -0.6580 c3        1 MOL      0.113854
    126 O17        -5.2330   -4.9570   -0.3850 oh        1 MOL     -0.603473
    127 H57        -4.6040   -3.2230   -2.3220 hn        1 MOL      0.318773
    128 H58        -5.4460   -2.2660    0.2580 h1        1 MOL      0.044052
    129 H59        -6.7420   -4.2910   -1.5760 h1        1 MOL      0.038140
    130 H60        -6.9500   -3.9950    0.1820 h1        1 MOL      0.038140
    131 H61        -5.7290   -5.7490   -0.6130 ho        1 MOL      0.408160
    132 N12        -7.2360   -1.2370   -2.1480 n         1 MOL     -0.099499
    133 C43        -8.0610   -0.1420   -2.5820 c3        1 MOL      0.094412
    134 C44        -8.0000    1.1680   -1.6900 c         1 MOL      0.571023
    135 O18        -9.0180    1.8920   -1.5040 o         1 MOL     -0.554692
    136 C45        -9.5090   -0.7010   -2.6500 c3        1 MOL     -0.380290
    137 H62        -6.9310   -1.8410   -2.8980 hn        1 MOL      0.184914
    138 H63        -7.7720    0.2360   -3.5640 h1        1 MOL      0.049145
    139 H64       -10.2420   -0.0410   -3.1090 hc        1 MOL      0.106445
    140 H65        -9.6230   -1.6530   -3.1650 hc        1 MOL      0.106445
    141 H66        -9.9030   -0.7190   -1.6350 hc        1 MOL      0.106445
    142 N13        -6.8470    1.4210   -1.1460 n         1 MOL     -0.607910
    143 C46        -6.6280    2.3910   -0.0200 c3        1 MOL      0.547970
    144 C47        -5.5410    3.3890   -0.2000 c         1 MOL      0.329843
    145 O19        -4.6230    3.1190   -0.9800 o         1 MOL     -0.471219
    146 C48        -6.3990    1.5650    1.3010 c3        1 MOL     -0.198566
    147 H67        -6.1250    0.7250   -1.1640 hn        1 MOL      0.265781
    148 H68        -7.5530    2.9280    0.1500 h1        1 MOL     -0.034017
    149 H69        -7.3420    1.1290    1.6380 hc        1 MOL      0.051706
    150 H70        -5.6340    0.8130    1.1740 hc        1 MOL      0.051706
    151 H71        -6.1160    2.2770    2.0720 hc        1 MOL      0.051706
    152 N14        -5.5940    4.5590    0.4800 n         1 MOL     -0.511009
    153 C49        -4.6350    5.6870    0.3580 c3        1 MOL      0.019262
    154 C50        -4.4490    6.4160   -1.0240 c         1 MOL      0.322486
    155 O20        -3.5430    7.2190   -1.2420 o         1 MOL     -0.476630
    156 C51        -3.2290    5.3740    0.8940 c3        1 MOL      0.047569
    157 C52        -3.1050    4.7410    2.3310 c3        1 MOL      0.013693
    158 C53        -1.7010    4.2710    2.7060 c         1 MOL      0.587668
    159 O21        -0.9620    5.0790    3.3470 o         1 MOL     -0.676906
    160 O22        -1.2880    3.1460    2.4060 o         1 MOL     -0.676906
    161 H72        -6.3990    4.7690    1.0620 hn        1 MOL      0.298243
    162 H73        -5.0950    6.4580    0.9690 h1        1 MOL      0.077112
    163 H74        -2.6880    6.3320    0.9270 hc        1 MOL      0.043947
    164 H75        -2.7320    4.6320    0.2620 hc        1 MOL      0.043947
    165 H76        -3.7630    3.8760    2.3940 hc        1 MOL     -0.057002
    166 H77        -3.4900    5.4210    3.0900 hc        1 MOL     -0.057002
    167 N15        -5.3610    6.2190   -1.9560 n         1 MOL     -0.127378
    168 C54        -5.2830    6.6110   -3.3400 c3        1 MOL     -0.201134
    169 H78        -4.5440    5.9950   -3.8510 h1        1 MOL      0.096058
    170 H79        -6.2570    6.4760   -3.8120 h1        1 MOL      0.096058
    171 H80        -4.9890    7.6590   -3.4060 h1        1 MOL      0.096058
    172 H81        -6.1650    5.7040   -1.6060 hn        1 MOL      0.183398
    173 Ca1        -1.6220    0.5010    2.5460 Ca        1 MOL      1.749581
    174 O23        -3.0460    1.3350    0.4810 oh        1 MOL     -0.837564
    175 H82        -3.5430    0.7970   -0.1470 ho        1 MOL      0.414814
    176 H83        -2.7990    2.1110   -0.0200 ho        1 MOL      0.414814
    177 O24        -1.2060   -1.3150    0.8070 oh        1 MOL     -0.837564
    178 H84        -1.3390   -2.2650    0.9100 ho        1 MOL      0.414814
    179 H85        -0.8370   -1.2230   -0.0730 ho        1 MOL      0.414814
    180 O25        -1.2270    1.6350    5.0910 oh        1 MOL     -0.837564
    181 H86        -1.7790    1.6950    5.8710 ho        1 MOL      0.414814
    182 H87        -0.3360    1.7630    5.4180 ho        1 MOL      0.414814
    183 O26        -3.2260   -1.8460    3.0190 oh        1 MOL     -0.837564
    184 H88        -4.0720   -2.0270    3.4220 ho        1 MOL      0.414814
    185 H89        -3.2600   -2.3080    2.1820 ho        1 MOL      0.414814
    186 O27        -4.1660    1.0820    3.5120 oh        1 MOL     -0.837564
    187 H90        -4.9350    0.6630    3.9050 ho        1 MOL      0.414814
    188 H91        -4.0590    1.8900    4.0050 ho        1 MOL      0.414814
@<TRIPOS>BOND
     1    1    2 1   
     2    1    4 1   
     3    1    5 1   
     4    1    6 1   
     5    2    3 2   
     6    2    7 1   
     7    7    8 1   
     8    7   15 1   
     9    8    9 1   
    10    8   11 1   
    11    8   16 1   
    12    9   10 2   
    13    9   19 1   
    14   11   12 1   
    15   11   17 1   
    16   11   18 1   
    17   12   13 1   
    18   12   14 1   
    19   19   20 1   
    20   19   28 1   
    21   20   21 1   
    22   20   23 1   
    23   20   29 1   
    24   21   22 2   
    25   21   41 1   
    26   23   24 1   
    27   23   30 1   
    28   23   31 1   
    29   24   25 1   
    30   24   32 1   
    31   24   33 1   
    32   25   26 1   
    33   25   34 1   
    34   25   35 1   
    35   26   27 1   
    36   26   36 1   
    37   26   37 1   
    38   27   38 1   
    39   27   39 1   
    40   27   40 1   
    41   41   42 1   
    42   41   49 1   
    43   42   43 1   
    44   42   45 1   
    45   42   50 1   
    46   43   44 2   
    47   43   53 1   
    48   45   46 1   
    49   45   51 1   
    50   45   52 1   
    51   46   47 1   
    52   46   48 1   
    53   53   54 1   
    54   53   57 1   
    55   54   55 1   
    56   54   58 1   
    57   54   59 1   
    58   55   56 2   
    59   55   60 1   
    60   60   61 1   
    61   60   68 1   
    62   61   62 1   
    63   61   64 1   
    64   61   69 1   
    65   62   63 2   
    66   62   74 1   
    67   64   65 1   
    68   64   70 1   
    69   64   71 1   
    70   65   66 1   
    71   65   67 2   
    72   66   72 1   
    73   66   73 1   
    74   74   75 1   
    75   74   78 1   
    76   75   76 1   
    77   75   79 1   
    78   75   80 1   
    79   76   77 2   
    80   76   81 1   
    81   81   82 1   
    82   81   93 1   
    83   82   83 1   
    84   82   85 1   
    85   82   94 1   
    86   83   84 2   
    87   83  102 1   
    88   85   86 1   
    89   85   95 1   
    90   85   96 1   
    91   86   87 ar  
    92   86   88 ar  
    93   87   89 ar  
    94   87   97 1   
    95   88   90 ar  
    96   88   98 1   
    97   89   91 ar  
    98   89   99 1   
    99   90   91 ar  
   100   90  100 1   
   101   91   92 1   
   102   92  101 1   
   103  102  103 1   
   104  102  110 1   
   105  103  104 1   
   106  103  106 1   
   107  103  111 1   
   108  104  105 2   
   109  104  121 1   
   110  106  107 1   
   111  106  108 1   
   112  106  112 1   
   113  107  109 1   
   114  107  113 1   
   115  107  114 1   
   116  108  115 1   
   117  108  116 1   
   118  108  117 1   
   119  109  118 1   
   120  109  119 1   
   121  109  120 1   
   122  121  122 1   
   123  121  127 1   
   124  122  123 1   
   125  122  125 1   
   126  122  128 1   
   127  123  124 2   
   128  123  132 1   
   129  125  126 1   
   130  125  129 1   
   131  125  130 1   
   132  126  131 1   
   133  132  133 1   
   134  132  137 1   
   135  133  134 1   
   136  133  136 1   
   137  133  138 1   
   138  134  135 2   
   139  134  142 1   
   140  136  139 1   
   141  136  140 1   
   142  136  141 1   
   143  142  143 1   
   144  142  147 1   
   145  143  144 1   
   146  143  146 1   
   147  143  148 1   
   148  144  145 2   
   149  144  152 1   
   150  146  149 1   
   151  146  150 1   
   152  146  151 1   
   153  152  153 1   
   154  152  161 1   
   155  153  154 1   
   156  153  156 1   
   157  153  162 1   
   158  154  155 2   
   159  154  167 1   
   160  156  157 1   
   161  156  163 1   
   162  156  164 1   
   163  157  158 1   
   164  157  165 1   
   165  157  166 1   
   166  158  159 1   
   167  158  160 1   
   168  167  168 1   
   169  167  172 1   
   170  168  169 1   
   171  168  170 1   
   172  168  171 1   
   173  174  175 1   
   174  174  176 1   
   175  177  178 1   
   176  177  179 1   
   177  180  181 1   
   178  180  182 1   
   179  183  184 1   
   180  183  185 1   
   181  186  187 1   
   182  186  188 1   
@<TRIPOS>SUBSTRUCTURE
     1 MOL         1 TEMP              0 ****  ****    0 ROOT
