@<TRIPOS>MOLECULE
MOL
  188   182     1     0     0
SMALL
resp


@<TRIPOS>ATOM
      1 C1          5.8950   -0.8280    4.9390 c3        1 MOL     -0.495569
      2 C2          4.9310   -0.8530    3.7770 c         1 MOL      0.653972
      3 O1          3.7940   -1.2140    3.9400 o         1 MOL     -0.586973
      4 H1          6.2800   -1.8330    5.1130 hc        1 MOL      0.126264
      5 H2          6.7230   -0.1570    4.7110 hc        1 MOL      0.126264
      6 H3          5.3780   -0.4780    5.8330 hc        1 MOL      0.126264
      7 N1          5.4510   -0.6170    2.6010 n         1 MOL     -0.306599
      8 C3          4.5830   -0.4300    1.4340 c3        1 MOL      0.018162
      9 C4          4.1450   -1.7700    0.8970 c         1 MOL      0.346547
     10 O2          3.0020   -1.8720    0.3870 o         1 MOL     -0.616629
     11 C5          5.2580    0.3570    0.2590 c3        1 MOL     -0.156750
     12 C6          6.6330   -0.1880   -0.1350 c         1 MOL      0.824254
     13 O3          7.5780   -0.1080    0.6410 o         1 MOL     -0.719736
     14 O4          6.6340   -0.7180   -1.2480 o         1 MOL     -0.719736
     15 H4          6.4230   -0.3700    2.5140 hn        1 MOL      0.212101
     16 H5          3.7200    0.1990    1.6460 h1        1 MOL      0.074709
     17 H6          5.3390    1.3810    0.6220 hc        1 MOL      0.024337
     18 H7          4.6360    0.3030   -0.6300 hc        1 MOL      0.024337
     19 N2          5.0640   -2.7480    0.7950 n         1 MOL     -0.248201
     20 C7          4.8830   -4.1770    0.4180 c3        1 MOL      0.119159
     21 C8          4.8150   -4.4190   -1.1290 c         1 MOL      0.580675
     22 O5          5.3020   -5.4260   -1.5920 o         1 MOL     -0.536467
     23 C9          5.9170   -5.0770    1.1920 c3        1 MOL     -0.103728
     24 C10         5.5480   -5.1900    2.6810 c3        1 MOL      0.107493
     25 C11         6.3980   -6.0440    3.6240 c3        1 MOL     -0.045001
     26 C12         5.9040   -6.0100    5.0420 c3        1 MOL     -0.003009
     27 N3          6.7460   -6.8160    5.9670 n4        1 MOL     -0.182455
     28 H8          5.9630   -2.4940    1.1830 hn        1 MOL      0.206314
     29 H9          3.8720   -4.3730    0.7610 h1        1 MOL      0.013678
     30 H10         6.9260   -4.6710    1.1620 hc        1 MOL      0.049340
     31 H11         5.9440   -6.0370    0.6770 hc        1 MOL      0.049340
     32 H12         4.5210   -5.5420    2.7530 hc        1 MOL     -0.023169
     33 H13         5.4800   -4.1820    3.0870 hc        1 MOL     -0.023169
     34 H14         7.4660   -5.8390    3.5310 hc        1 MOL      0.037538
     35 H15         6.3070   -7.0670    3.2630 hc        1 MOL      0.037538
     36 H16         4.9490   -6.5150    5.1760 hx        1 MOL      0.079761
     37 H17         5.8840   -4.9550    5.3210 hx        1 MOL      0.079761
     38 H18         6.3370   -6.9940    6.8730 hn        1 MOL      0.283118
     39 H19         7.0800   -7.7060    5.6190 hn        1 MOL      0.283118
     40 H20         7.5460   -6.2190    6.1620 hn        1 MOL      0.283118
     41 N4          4.2420   -3.4350   -1.8160 n         1 MOL     -0.462682
     42 C13         3.7240   -3.4370   -3.2880 c3        1 MOL      0.170277
     43 C14         3.7150   -2.0100   -4.0170 c         1 MOL      0.369778
     44 O6          3.4300   -1.8970   -5.2390 o         1 MOL     -0.508520
     45 C15         2.2690   -4.0190   -3.2490 c3        1 MOL     -0.378607
     46 C16         1.5180   -3.3050   -2.1170 c         1 MOL      0.931706
     47 O7          1.3970   -3.9450   -1.0280 o         1 MOL     -0.782431
     48 O8          1.0420   -2.1700   -2.1810 o         1 MOL     -0.782431
     49 H21         3.8400   -2.6910   -1.2570 hn        1 MOL      0.136551
     50 H22         4.4100   -4.0110   -3.9260 h1        1 MOL      0.103309
     51 H23         2.3250   -5.1030   -3.1750 hc        1 MOL      0.095122
     52 H24         1.7940   -3.8400   -4.2170 hc        1 MOL      0.095122
     53 N5          4.1150   -0.9630   -3.2880 n         1 MOL     -0.124119
     54 C17         3.9950    0.4870   -3.6780 c3        1 MOL     -0.103105
     55 C18         5.2010    0.8910   -4.4590 c         1 MOL      0.604880
     56 O9          5.7250   -0.0330   -5.0840 o         1 MOL     -0.532409
     57 H25         4.4980   -1.1550   -2.3770 hn        1 MOL      0.196111
     58 H26         3.9930    1.1440   -2.8080 h1        1 MOL      0.089405
     59 H27         3.1010    0.6380   -4.2890 h1        1 MOL      0.089405
     60 N6          5.6000    2.1500   -4.6160 n         1 MOL     -0.513492
     61 C19         5.0720    3.3170   -3.9330 c3        1 MOL      0.149504
     62 C20         5.7180    3.3620   -2.5180 c         1 MOL      0.587813
     63 O10         6.9260    3.2830   -2.4030 o         1 MOL     -0.531830
     64 C21         5.4050    4.4960   -4.8410 c3        1 MOL     -0.428838
     65 C22         4.9640    5.8290   -4.1780 c         1 MOL      0.677849
     66 N7          5.8820    6.6100   -3.6670 n         1 MOL     -0.731479
     67 O11         3.8070    6.2780   -4.2440 o         1 MOL     -0.571357
     68 H28         6.3680    2.2750   -5.2490 hn        1 MOL      0.304882
     69 H29         3.9870    3.3420   -3.9290 h1        1 MOL      0.050156
     70 H30         4.8850    4.3600   -5.7960 hc        1 MOL      0.145214
     71 H31         6.4630    4.5250   -5.0710 hc        1 MOL      0.145214
     72 H32         6.8480    6.3120   -3.6340 hn        1 MOL      0.353914
     73 H33         5.5180    7.4110   -3.1670 hn        1 MOL      0.353914
     74 N8          4.9590    3.5860   -1.4720 n         1 MOL     -0.571749
     75 C23         3.3930    3.5600   -1.4500 c3        1 MOL     -0.005786
     76 C24         2.7920    3.8660   -0.0780 c         1 MOL      0.635204
     77 O12         3.5370    3.9880    0.8970 o         1 MOL     -0.510302
     78 H34         5.5200    3.5990   -0.6270 hn        1 MOL      0.330926
     79 H35         2.8820    2.6690   -1.8060 h1        1 MOL      0.052679
     80 H36         3.0540    4.3180   -2.1610 h1        1 MOL      0.052679
     81 N9          1.4390    4.0750   -0.1130 n         1 MOL     -0.585702
     82 C25         0.5120    4.4860    1.0280 c3        1 MOL      0.055147
     83 C26        -0.8550    3.8800    0.7830 c         1 MOL      0.627528
     84 O13        -1.0660    3.5130   -0.3800 o         1 MOL     -0.502670
     85 C27         0.4840    6.0510    1.0430 c3        1 MOL     -0.186913
     86 C28        -0.3470    6.6620    2.1270 ca        1 MOL      0.020326
     87 C29        -1.7510    6.9210    1.9860 ca        1 MOL     -0.087998
     88 C30         0.2820    7.0430    3.3600 ca        1 MOL     -0.087998
     89 C31        -2.4800    7.4980    3.0210 ca        1 MOL     -0.339297
     90 C32        -0.4960    7.4950    4.4410 ca        1 MOL     -0.339297
     91 C33        -1.9170    7.7160    4.2790 ca        1 MOL      0.400574
     92 O14        -2.7370    8.0640    5.3650 oh        1 MOL     -0.496581
     93 H37         1.0040    3.8930   -1.0070 hn        1 MOL      0.322060
     94 H38         0.8540    4.1830    2.0230 h1        1 MOL      0.050557
     95 H39         0.1620    6.4130    0.0660 hc        1 MOL      0.102030
     96 H40         1.4850    6.4550    1.1750 hc        1 MOL      0.102030
     97 H41        -2.2260    6.7100    1.0460 ha        1 MOL      0.123218
     98 H42         1.3490    6.8790    3.4890 ha        1 MOL      0.123218
     99 H43        -3.5160    7.7420    2.8320 ha        1 MOL      0.165708
    100 H44        -0.0240    7.7730    5.3730 ha        1 MOL      0.165708
    101 H45        -2.2520    7.9910    6.1860 ho        1 MOL      0.353274
    102 N10        -1.6480    3.5910    1.8720 n         1 MOL     -0.431633
    103 C34        -2.9000    2.8130    1.7880 c3        1 MOL     -0.269417
    104 C35        -3.9280    3.2510    0.7220 c         1 MOL      0.609516
    105 O15        -4.0550    4.4190    0.3760 o         1 MOL     -0.482615
    106 C36        -3.6120    2.7520    3.1110 c3        1 MOL      0.153029
    107 C37        -2.9030    1.7270    4.0640 c3        1 MOL      0.000601
    108 C38        -3.6880    4.1130    3.8090 c3        1 MOL      0.064598
    109 C39        -3.8010    1.3090    5.2270 c3        1 MOL     -0.254498
    110 H46        -1.3200    3.7660    2.8070 hn        1 MOL      0.289830
    111 H47        -2.5980    1.8020    1.5280 h1        1 MOL      0.112858
    112 H48        -4.6640    2.4790    3.0130 hc        1 MOL      0.038977
    113 H49        -1.9310    2.0870    4.3790 hc        1 MOL      0.007890
    114 H50        -2.7480    0.8210    3.4730 hc        1 MOL      0.007890
    115 H51        -4.1080    3.9760    4.8130 hc        1 MOL     -0.010610
    116 H52        -2.6930    4.5570    3.8550 hc        1 MOL     -0.010610
    117 H53        -4.3770    4.7770    3.2880 hc        1 MOL     -0.010610
    118 H54        -3.9190    2.1550    5.9110 hc        1 MOL      0.064685
    119 H55        -4.7760    1.0130    4.8460 hc        1 MOL      0.064685
    120 H56        -3.3800    0.3900    5.6480 hc        1 MOL      0.064685
    121 N11        -4.7460    2.2910    0.1990 n         1 MOL     -0.480236
    122 C40        -5.8800    2.5590   -0.6930 c3        1 MOL      0.007316
    123 C41        -6.1200    1.3550   -1.5970 c         1 MOL      0.629888
    124 O16        -5.6180    0.2730   -1.2560 o         1 MOL     -0.461856
    125 C42        -7.1030    2.8420    0.1230 c3        1 MOL     -0.060249
    126 O17        -7.4360    1.6170    0.8540 oh        1 MOL     -0.565075
    127 H57        -4.5690    1.3350    0.5040 hn        1 MOL      0.306301
    128 H58        -5.6860    3.4010   -1.3700 h1        1 MOL      0.076759
    129 H59        -7.8740    3.1780   -0.5650 h1        1 MOL      0.087909
    130 H60        -6.9440    3.6120    0.8820 h1        1 MOL      0.087909
    131 H61        -8.3760    1.7460    1.0010 ho        1 MOL      0.398399
    132 N12        -6.9020    1.5260   -2.7110 n         1 MOL     -0.552376
    133 C43        -7.1690    0.5030   -3.7420 c3        1 MOL      0.100054
    134 C44        -7.6540   -0.8930   -3.2170 c         1 MOL      0.427174
    135 O18        -7.0470   -1.9000   -3.6950 o         1 MOL     -0.444949
    136 C45        -5.9570    0.4010   -4.7000 c3        1 MOL     -0.483871
    137 H62        -7.3140    2.4440   -2.7910 hn        1 MOL      0.320378
    138 H63        -7.9090    1.0520   -4.3100 h1        1 MOL      0.081350
    139 H64        -5.5630    1.3260   -5.1230 hc        1 MOL      0.163217
    140 H65        -5.0670    0.0580   -4.1800 hc        1 MOL      0.163217
    141 H66        -6.2520   -0.3030   -5.4730 hc        1 MOL      0.163217
    142 N13        -8.6040   -1.0010   -2.3110 n         1 MOL     -0.500794
    143 C46        -9.2600   -2.2050   -1.7910 c3        1 MOL      0.416322
    144 C47        -8.3330   -3.3470   -1.4190 c         1 MOL      0.284625
    145 O19        -8.8080   -4.4960   -1.2440 o         1 MOL     -0.489155
    146 C48       -10.4340   -2.6390   -2.7440 c3        1 MOL     -0.262803
    147 H67        -8.9250   -0.1090   -1.9430 hn        1 MOL      0.261321
    148 H68        -9.7220   -1.9240   -0.8490 h1        1 MOL     -0.013568
    149 H69       -11.1720   -3.2080   -2.1780 hc        1 MOL      0.071335
    150 H70       -10.8450   -1.6960   -3.1110 hc        1 MOL      0.071335
    151 H71       -10.0870   -3.2850   -3.5520 hc        1 MOL      0.071335
    152 N14        -7.0870   -3.0160   -1.1580 n         1 MOL     -0.171732
    153 C49        -6.0930   -3.9990   -0.8700 c3        1 MOL     -0.121664
    154 C50        -6.4100   -4.8330    0.3550 c         1 MOL      0.526404
    155 O20        -6.2990   -6.0670    0.2960 o         1 MOL     -0.519571
    156 C51        -4.7750   -3.2560   -0.6560 c3        1 MOL      0.302517
    157 C52        -3.5510   -4.2230   -0.5520 c3        1 MOL     -0.484692
    158 C53        -2.2490   -3.5450   -0.3270 c         1 MOL      0.905322
    159 O21        -1.4440   -4.0210    0.4960 o         1 MOL     -0.806448
    160 O22        -1.8970   -2.5560   -0.9420 o         1 MOL     -0.806448
    161 H72        -6.8000   -2.0590   -1.2850 hn        1 MOL      0.106162
    162 H73        -5.9470   -4.6830   -1.7060 h1        1 MOL      0.128218
    163 H74        -4.9610   -2.5480    0.1600 hc        1 MOL     -0.014355
    164 H75        -4.5860   -2.5990   -1.5020 hc        1 MOL     -0.014355
    165 H76        -3.5800   -4.8480   -1.4490 hc        1 MOL      0.106622
    166 H77        -3.7830   -4.9730    0.2070 hc        1 MOL      0.106622
    167 N15        -6.6690   -4.2000    1.5060 n         1 MOL     -0.264574
    168 C54        -7.0890   -4.8240    2.7720 c3        1 MOL     -0.535113
    169 H78        -6.4260   -5.6580    3.0020 h1        1 MOL      0.189263
    170 H79        -7.0390   -4.0880    3.5740 h1        1 MOL      0.189263
    171 H80        -8.1110   -5.1890    2.6760 h1        1 MOL      0.189263
    172 H81        -6.8230   -3.2030    1.4620 hn        1 MOL      0.223158
    173 Ca1         0.3690   -2.1060    0.4430 Ca        1 MOL      1.818089
    174 O23        -1.9920   -1.1360    1.8350 oh        1 MOL     -0.825365
    175 H82        -1.9010   -1.3940    2.7450 ho        1 MOL      0.402382
    176 H83        -2.8910   -0.8180    1.7620 ho        1 MOL      0.402382
    177 O24        -0.0820    0.3450   -0.3690 oh        1 MOL     -0.825365
    178 H84        -1.0250    0.4750   -0.5280 ho        1 MOL      0.402382
    179 H85         0.3450    0.9690   -0.9530 ho        1 MOL      0.402382
    180 O25         1.7210   -3.7370    2.6840 oh        1 MOL     -0.825365
    181 H86         2.3950   -3.5660    3.3370 ho        1 MOL      0.402382
    182 H87         1.9840   -4.5730    2.2900 ho        1 MOL      0.402382
    183 O26        -1.1170   -3.4900    3.0390 oh        1 MOL     -0.825365
    184 H88        -0.2160   -3.6860    3.3120 ho        1 MOL      0.402382
    185 H89        -1.2810   -4.0750    2.3040 ho        1 MOL      0.402382
    186 O27         0.9830   -0.5050    2.4170 oh        1 MOL     -0.825365
    187 H90         1.5600   -0.7880    3.1250 ho        1 MOL      0.402382
    188 H91         1.0610    0.4460    2.4010 ho        1 MOL      0.402382
@<TRIPOS>BOND
     1    1    2 1   
     2    1    4 1   
     3    1    5 1   
     4    1    6 1   
     5    2    3 2   
     6    2    7 1   
     7    7    8 1   
     8    7   15 1   
     9    8    9 1   
    10    8   11 1   
    11    8   16 1   
    12    9   10 2   
    13    9   19 1   
    14   11   12 1   
    15   11   17 1   
    16   11   18 1   
    17   12   13 1   
    18   12   14 1   
    19   19   20 1   
    20   19   28 1   
    21   20   21 1   
    22   20   23 1   
    23   20   29 1   
    24   21   22 2   
    25   21   41 1   
    26   23   24 1   
    27   23   30 1   
    28   23   31 1   
    29   24   25 1   
    30   24   32 1   
    31   24   33 1   
    32   25   26 1   
    33   25   34 1   
    34   25   35 1   
    35   26   27 1   
    36   26   36 1   
    37   26   37 1   
    38   27   38 1   
    39   27   39 1   
    40   27   40 1   
    41   41   42 1   
    42   41   49 1   
    43   42   43 1   
    44   42   45 1   
    45   42   50 1   
    46   43   44 2   
    47   43   53 1   
    48   45   46 1   
    49   45   51 1   
    50   45   52 1   
    51   46   47 1   
    52   46   48 1   
    53   53   54 1   
    54   53   57 1   
    55   54   55 1   
    56   54   58 1   
    57   54   59 1   
    58   55   56 2   
    59   55   60 1   
    60   60   61 1   
    61   60   68 1   
    62   61   62 1   
    63   61   64 1   
    64   61   69 1   
    65   62   63 2   
    66   62   74 1   
    67   64   65 1   
    68   64   70 1   
    69   64   71 1   
    70   65   66 1   
    71   65   67 2   
    72   66   72 1   
    73   66   73 1   
    74   74   75 1   
    75   74   78 1   
    76   75   76 1   
    77   75   79 1   
    78   75   80 1   
    79   76   77 2   
    80   76   81 1   
    81   81   82 1   
    82   81   93 1   
    83   82   83 1   
    84   82   85 1   
    85   82   94 1   
    86   83   84 2   
    87   83  102 1   
    88   85   86 1   
    89   85   95 1   
    90   85   96 1   
    91   86   87 ar  
    92   86   88 ar  
    93   87   89 ar  
    94   87   97 1   
    95   88   90 ar  
    96   88   98 1   
    97   89   91 ar  
    98   89   99 1   
    99   90   91 ar  
   100   90  100 1   
   101   91   92 1   
   102   92  101 1   
   103  102  103 1   
   104  102  110 1   
   105  103  104 1   
   106  103  106 1   
   107  103  111 1   
   108  104  105 2   
   109  104  121 1   
   110  106  107 1   
   111  106  108 1   
   112  106  112 1   
   113  107  109 1   
   114  107  113 1   
   115  107  114 1   
   116  108  115 1   
   117  108  116 1   
   118  108  117 1   
   119  109  118 1   
   120  109  119 1   
   121  109  120 1   
   122  121  122 1   
   123  121  127 1   
   124  122  123 1   
   125  122  125 1   
   126  122  128 1   
   127  123  124 2   
   128  123  132 1   
   129  125  126 1   
   130  125  129 1   
   131  125  130 1   
   132  126  131 1   
   133  132  133 1   
   134  132  137 1   
   135  133  134 1   
   136  133  136 1   
   137  133  138 1   
   138  134  135 2   
   139  134  142 1   
   140  136  139 1   
   141  136  140 1   
   142  136  141 1   
   143  142  143 1   
   144  142  147 1   
   145  143  144 1   
   146  143  146 1   
   147  143  148 1   
   148  144  145 2   
   149  144  152 1   
   150  146  149 1   
   151  146  150 1   
   152  146  151 1   
   153  152  153 1   
   154  152  161 1   
   155  153  154 1   
   156  153  156 1   
   157  153  162 1   
   158  154  155 2   
   159  154  167 1   
   160  156  157 1   
   161  156  163 1   
   162  156  164 1   
   163  157  158 1   
   164  157  165 1   
   165  157  166 1   
   166  158  159 1   
   167  158  160 1   
   168  167  168 1   
   169  167  172 1   
   170  168  169 1   
   171  168  170 1   
   172  168  171 1   
   173  174  175 1   
   174  174  176 1   
   175  177  178 1   
   176  177  179 1   
   177  180  181 1   
   178  180  182 1   
   179  183  184 1   
   180  183  185 1   
   181  186  187 1   
   182  186  188 1   
@<TRIPOS>SUBSTRUCTURE
     1 MOL         1 TEMP              0 ****  ****    0 ROOT
