@<TRIPOS>MOLECULE
MOL
  185   180     1     0     0
SMALL
resp


@<TRIPOS>ATOM
      1 C1          4.7500   -0.4050    5.7260 c3        1 MOL     -0.449901
      2 C2          3.7640   -0.2900    4.5320 c         1 MOL      0.662988
      3 O1          2.5630   -0.0930    4.7130 o         1 MOL     -0.584058
      4 H1          5.5390   -1.1150    5.4770 hc        1 MOL      0.113839
      5 H2          5.1910    0.5700    5.9300 hc        1 MOL      0.113839
      6 H3          4.2140   -0.7540    6.6090 hc        1 MOL      0.113839
      7 N1          4.3180   -0.5840    3.3430 n         1 MOL     -0.482996
      8 C3          3.7080   -0.5990    2.0590 c3        1 MOL      0.380224
      9 C4          3.6300   -2.0070    1.3790 c         1 MOL      0.183482
     10 O2          2.8650   -2.1240    0.4550 o         1 MOL     -0.410408
     11 C5          4.3610    0.3980    1.1160 c3        1 MOL     -0.429560
     12 C6          5.8350    0.2700    0.8030 c         1 MOL      0.682770
     13 O3          6.4660    1.3370    0.7850 o         1 MOL     -0.649031
     14 O4          6.3600   -0.8390    0.5900 o         1 MOL     -0.649031
     15 H4          5.2670   -0.9170    3.3560 hn        1 MOL      0.271323
     16 H5          2.6900   -0.2950    2.2840 h1        1 MOL      0.019760
     17 H6          4.4470    1.3630    1.6150 hc        1 MOL      0.115333
     18 H7          3.8450    0.4020    0.1590 hc        1 MOL      0.115333
     19 N2          4.4950   -2.9520    1.6830 n         1 MOL     -0.539268
     20 C7          4.4890   -4.3570    1.2860 c3        1 MOL      0.307538
     21 C8          4.9220   -4.5460   -0.1030 c         1 MOL      0.402802
     22 O5          5.2620   -5.6220   -0.5410 o         1 MOL     -0.548822
     23 C9          5.1100   -5.3060    2.3650 c3        1 MOL     -0.043576
     24 C10         4.2560   -5.4330    3.6400 c3        1 MOL      0.141328
     25 C11         4.8210   -6.4390    4.6370 c3        1 MOL     -0.201784
     26 C12         4.1150   -6.3550    6.0130 c3        1 MOL      0.076713
     27 N3          4.7750   -7.2470    6.9790 n4        1 MOL     -0.336663
     28 H8          5.2980   -2.6230    2.2050 hn        1 MOL      0.316731
     29 H9          3.4490   -4.6670    1.1630 h1        1 MOL      0.051786
     30 H10         6.0640   -4.8500    2.6550 hc        1 MOL      0.009312
     31 H11         5.2970   -6.2940    1.9530 hc        1 MOL      0.009312
     32 H12         3.2340   -5.7680    3.4810 hc        1 MOL     -0.033346
     33 H13         4.1840   -4.4860    4.1750 hc        1 MOL     -0.033346
     34 H14         5.8820   -6.2610    4.8260 hc        1 MOL      0.085913
     35 H15         4.6730   -7.3710    4.0930 hc        1 MOL      0.085913
     36 H16         3.0500   -6.6010    5.9370 hx        1 MOL      0.089444
     37 H17         4.1140   -5.3400    6.4110 hx        1 MOL      0.089444
     38 H18         4.2530   -7.3310    7.8360 hn        1 MOL      0.318747
     39 H19         5.0260   -8.1760    6.6670 hn        1 MOL      0.318747
     40 H20         5.6590   -6.8220    7.2320 hn        1 MOL      0.318747
     41 N4          4.8800   -3.5380   -0.9860 n         1 MOL     -0.136991
     42 C13         5.2150   -3.5990   -2.4360 c3        1 MOL     -0.018433
     43 C14         5.3720   -2.1800   -3.0270 c         1 MOL      0.460848
     44 O6          5.3120   -1.9740   -4.2330 o         1 MOL     -0.506305
     45 C15         4.0200   -4.2330   -3.1370 c3        1 MOL     -0.199392
     46 C16         2.6460   -3.7560   -2.6110 c         1 MOL      0.706216
     47 O7          1.9240   -4.5440   -2.0310 o         1 MOL     -0.712768
     48 O8          2.2360   -2.5980   -2.8560 o         1 MOL     -0.712768
     49 H21         4.6320   -2.6080   -0.6650 hn        1 MOL      0.051314
     50 H22         6.1710   -4.1020   -2.6130 h1        1 MOL      0.112294
     51 H23         4.0830   -5.2990   -2.9370 hc        1 MOL      0.064642
     52 H24         4.1290   -4.0520   -4.2090 hc        1 MOL      0.064642
     53 N5          5.4170   -1.1110   -2.2240 n         1 MOL     -0.312458
     54 C17         5.4230    0.2880   -2.6980 c3        1 MOL      0.050323
     55 C18         6.5760    0.9340   -3.5010 c         1 MOL      0.607199
     56 O9          7.5560    0.2970   -3.8460 o         1 MOL     -0.518019
     57 H25         5.4680   -1.2930   -1.2300 hn        1 MOL      0.175659
     58 H26         5.4100    0.9710   -1.8440 h1        1 MOL      0.062991
     59 H27         4.5310    0.4370   -3.3120 h1        1 MOL      0.062991
     60 N6          6.5680    2.2620   -3.8370 n         1 MOL     -0.647161
     61 C19         5.4910    3.1710   -3.3940 c3        1 MOL      0.351311
     62 C20         5.7220    3.8820   -2.0130 c         1 MOL      0.429889
     63 O10         6.8200    4.3220   -1.7710 o         1 MOL     -0.497218
     64 C21         5.2920    4.2030   -4.5850 c3        1 MOL     -0.498144
     65 C22         4.0390    5.0640   -4.4180 c         1 MOL      0.779529
     66 N7          2.8370    4.5590   -4.6070 n         1 MOL     -0.815912
     67 O11         4.0700    6.1820   -3.9640 o         1 MOL     -0.558445
     68 H28         7.3870    2.6660   -4.2500 hn        1 MOL      0.368460
     69 H29         4.5230    2.6780   -3.3370 h1        1 MOL     -0.051359
     70 H30         5.3090    3.6280   -5.5120 hc        1 MOL      0.138476
     71 H31         6.1730    4.8290   -4.7610 hc        1 MOL      0.138476
     72 H32         2.7270    3.5510   -4.6380 hn        1 MOL      0.358071
     73 H33         2.0410    5.1200   -4.3410 hn        1 MOL      0.358071
     74 N8          4.7060    4.0430   -1.1610 n         1 MOL     -0.358841
     75 C23         3.3560    3.5130   -1.3810 c3        1 MOL      0.054907
     76 C24         2.4940    3.9540   -0.2340 c         1 MOL      0.658786
     77 O12         2.9960    4.3610    0.8340 o         1 MOL     -0.527750
     78 H34         4.7950    4.6220   -0.3350 hn        1 MOL      0.283019
     79 H35         3.4670    2.4370   -1.3880 h1        1 MOL     -0.013848
     80 H36         3.0420    3.9980   -2.3080 h1        1 MOL     -0.013848
     81 N9          1.1580    3.9830   -0.4390 n         1 MOL     -0.742323
     82 C25         0.2130    4.4450    0.5340 c3        1 MOL      0.437476
     83 C26        -0.8450    3.3530    0.7870 c         1 MOL      0.579840
     84 O13        -0.7590    2.2650    0.2270 o         1 MOL     -0.552981
     85 C27        -0.3630    5.7960    0.1610 c3        1 MOL     -0.054416
     86 C28        -0.7650    6.7040    1.3340 ca        1 MOL      0.044282
     87 C29        -2.0690    7.1000    1.4710 ca        1 MOL     -0.167660
     88 C30         0.1950    7.0460    2.3750 ca        1 MOL     -0.167660
     89 C31        -2.4570    7.8050    2.5920 ca        1 MOL     -0.270734
     90 C32        -0.1540    7.9230    3.3940 ca        1 MOL     -0.270734
     91 C33        -1.5140    8.3450    3.4630 ca        1 MOL      0.358607
     92 O14        -1.9110    9.1350    4.4530 oh        1 MOL     -0.519591
     93 H37         0.8460    3.5450   -1.2940 hn        1 MOL      0.329701
     94 H38         0.7320    4.5890    1.4780 h1        1 MOL     -0.021159
     95 H39        -1.2300    5.6500   -0.4910 hc        1 MOL      0.024976
     96 H40         0.3320    6.4280   -0.3860 hc        1 MOL      0.024976
     97 H41        -2.7990    6.7680    0.7540 ha        1 MOL      0.161515
     98 H42         1.2230    6.7400    2.2950 ha        1 MOL      0.161515
     99 H43        -3.4600    8.2010    2.6980 ha        1 MOL      0.143997
    100 H44         0.4900    8.3840    4.1410 ha        1 MOL      0.143997
    101 H45        -1.1660    9.5750    4.8590 ho        1 MOL      0.398838
    102 N10        -1.8050    3.6860    1.7010 n         1 MOL     -0.576770
    103 C34        -3.0380    2.8440    1.9110 c3        1 MOL      0.034557
    104 C35        -3.9450    2.9550    0.6570 c         1 MOL      0.523660
    105 O15        -3.6800    3.8190   -0.2150 o         1 MOL     -0.530270
    106 C36        -3.7840    3.2950    3.2290 c3        1 MOL      0.025578
    107 C37        -3.2850    2.4920    4.4350 c3        1 MOL     -0.009716
    108 C38        -3.6510    4.8620    3.3890 c3        1 MOL     -0.229803
    109 C39        -4.0530    2.6220    5.7450 c3        1 MOL     -0.397544
    110 H46        -1.8580    4.6330    2.0490 hn        1 MOL      0.226323
    111 H47        -2.7450    1.7920    1.9660 h1        1 MOL      0.063371
    112 H48        -4.8450    3.1020    3.1480 hc        1 MOL      0.028045
    113 H49        -2.2780    2.8410    4.6830 hc        1 MOL      0.049065
    114 H50        -3.1840    1.4760    4.0660 hc        1 MOL      0.049065
    115 H51        -2.6270    5.1850    3.6010 hc        1 MOL      0.091363
    116 H52        -3.9800    5.3210    2.4590 hc        1 MOL      0.091363
    117 H53        -4.1990    5.3150    4.2240 hc        1 MOL      0.091363
    118 H54        -3.5370    2.0060    6.4730 hc        1 MOL      0.113487
    119 H55        -3.9080    3.6640    6.0470 hc        1 MOL      0.113487
    120 H56        -5.1040    2.3600    5.6320 hc        1 MOL      0.113487
    121 N11        -4.9530    2.1310    0.5320 n         1 MOL     -0.356879
    122 C40        -5.8830    2.0730   -0.5730 c3        1 MOL      0.011073
    123 C41        -5.8570    0.6990   -1.3020 c         1 MOL      0.458801
    124 O16        -5.9470   -0.3940   -0.7280 o         1 MOL     -0.425701
    125 C42        -7.2960    2.5840   -0.1520 c3        1 MOL     -0.018443
    126 O17        -7.2580    3.9440   -0.0380 oh        1 MOL     -0.535364
    127 H57        -4.9900    1.3860    1.2200 hn        1 MOL      0.254019
    128 H58        -5.5730    2.7900   -1.3320 h1        1 MOL      0.132159
    129 H59        -7.6830    2.0910    0.7440 h1        1 MOL      0.067944
    130 H60        -7.9270    2.4870   -1.0280 h1        1 MOL      0.067944
    131 H61        -8.0620    4.1510    0.4380 ho        1 MOL      0.398442
    132 N12        -5.8430    0.8700   -2.6370 n         1 MOL     -0.462446
    133 C43        -5.6940   -0.1850   -3.6570 c3        1 MOL      0.194565
    134 C44        -6.5380   -1.4590   -3.4960 c         1 MOL      0.428915
    135 O18        -6.0200   -2.5140   -3.8280 o         1 MOL     -0.455022
    136 C45        -4.2040   -0.3530   -3.8770 c3        1 MOL     -0.022630
    137 H62        -5.8100    1.8020   -2.9980 hn        1 MOL      0.286773
    138 H63        -6.0440    0.2780   -4.5810 h1        1 MOL      0.040056
    139 H64        -3.9630   -0.5820   -4.9200 hc        1 MOL      0.005743
    140 H65        -3.6140    0.5380   -3.6750 hc        1 MOL      0.005743
    141 H66        -3.8690   -1.1590   -3.2300 hc        1 MOL      0.005743
    142 N13        -7.7640   -1.3880   -2.9250 n         1 MOL     -0.547910
    143 C46        -8.6160   -2.4910   -2.6050 c3        1 MOL      0.425367
    144 C47        -8.0940   -3.4600   -1.5430 c         1 MOL      0.233818
    145 O19        -8.6390   -4.5680   -1.3930 o         1 MOL     -0.488808
    146 C48        -9.1050   -3.1060   -3.9370 c3        1 MOL     -0.378338
    147 H67        -8.1130   -0.4770   -2.6840 hn        1 MOL      0.247779
    148 H68        -9.4730   -2.1360   -2.0260 h1        1 MOL      0.001505
    149 H69        -8.3200   -3.6960   -4.4080 hc        1 MOL      0.106335
    150 H70        -9.9880   -3.7230   -3.7610 hc        1 MOL      0.106335
    151 H71        -9.5010   -2.3500   -4.6120 hc        1 MOL      0.106335
    152 N14        -7.0170   -3.1250   -0.8190 n         1 MOL     -0.040034
    153 C49        -6.2380   -4.1110   -0.0360 c3        1 MOL     -0.219000
    154 C50        -6.8830   -4.4990    1.3030 c         1 MOL      0.412158
    155 O20        -6.8120   -5.6730    1.7000 o         1 MOL     -0.509238
    156 C51        -4.7660   -3.6140    0.1230 c3        1 MOL      0.276938
    157 C52        -3.8470   -3.4900   -1.1000 c3        1 MOL     -0.225063
    158 C53        -2.3820   -3.4670   -0.6250 c         1 MOL      0.695599
    159 O21        -1.9940   -2.5950    0.2120 o         1 MOL     -0.733948
    160 O22        -1.5550   -4.3280   -1.0370 o         1 MOL     -0.733948
    161 H72        -6.5490   -2.2430   -0.9240 hn        1 MOL      0.058700
    162 H73        -6.2220   -4.9990   -0.6730 h1        1 MOL      0.163421
    163 H74        -4.2930   -4.1930    0.9170 hc        1 MOL     -0.039335
    164 H75        -4.8080   -2.6690    0.6470 hc        1 MOL     -0.039335
    165 H76        -4.0900   -2.6860   -1.8000 hc        1 MOL      0.049655
    166 H77        -3.8760   -4.4030   -1.6970 hc        1 MOL      0.049655
    167 N15        -7.4770   -3.5650    2.0420 n         1 MOL     -0.161298
    168 C54        -7.9770   -3.7930    3.4020 c3        1 MOL     -0.273429
    169 H78        -8.2420   -4.8430    3.5200 h1        1 MOL      0.113808
    170 H79        -7.2010   -3.5320    4.1220 h1        1 MOL      0.113808
    171 H80        -8.8570   -3.1740    3.5740 h1        1 MOL      0.113808
    172 H81        -7.6780   -2.6520    1.6680 hn        1 MOL      0.184278
    173 Ca1         0.5250   -2.5530   -0.8610 Ca        1 MOL      1.757744
    174 O23         0.4480   -0.5570    0.9840 oh        1 MOL     -0.858880
    175 H82         0.0100   -0.6350    1.8330 ho        1 MOL      0.421535
    176 H83         0.3630    0.3670    0.7500 ho        1 MOL      0.421535
    177 O24         0.0720   -0.2280   -2.0010 oh        1 MOL     -0.858880
    178 H84         0.4150    0.2780   -2.7340 ho        1 MOL      0.421535
    179 H85        -0.8820   -0.0740   -2.0310 ho        1 MOL      0.421535
    180 O25         1.0230   -3.9630    1.3700 oh        1 MOL     -0.858880
    181 H86         0.8130   -4.8350    1.7240 ho        1 MOL      0.421535
    182 H87         1.3600   -3.4820    2.1170 ho        1 MOL      0.421535
    183 O26        -0.9540   -2.5270   -3.4480 oh        1 MOL     -0.858880
    184 H88        -1.4020   -3.3290   -3.7280 ho        1 MOL      0.421535
    185 H89        -1.0960   -1.9110   -4.1590 ho        1 MOL      0.421535
@<TRIPOS>BOND
     1    1    2 1   
     2    1    4 1   
     3    1    5 1   
     4    1    6 1   
     5    2    3 2   
     6    2    7 1   
     7    7    8 1   
     8    7   15 1   
     9    8    9 1   
    10    8   11 1   
    11    8   16 1   
    12    9   10 2   
    13    9   19 1   
    14   11   12 1   
    15   11   17 1   
    16   11   18 1   
    17   12   13 1   
    18   12   14 1   
    19   19   20 1   
    20   19   28 1   
    21   20   21 1   
    22   20   23 1   
    23   20   29 1   
    24   21   22 2   
    25   21   41 1   
    26   23   24 1   
    27   23   30 1   
    28   23   31 1   
    29   24   25 1   
    30   24   32 1   
    31   24   33 1   
    32   25   26 1   
    33   25   34 1   
    34   25   35 1   
    35   26   27 1   
    36   26   36 1   
    37   26   37 1   
    38   27   38 1   
    39   27   39 1   
    40   27   40 1   
    41   41   42 1   
    42   41   49 1   
    43   42   43 1   
    44   42   45 1   
    45   42   50 1   
    46   43   44 2   
    47   43   53 1   
    48   45   46 1   
    49   45   51 1   
    50   45   52 1   
    51   46   47 1   
    52   46   48 1   
    53   53   54 1   
    54   53   57 1   
    55   54   55 1   
    56   54   58 1   
    57   54   59 1   
    58   55   56 2   
    59   55   60 1   
    60   60   61 1   
    61   60   68 1   
    62   61   62 1   
    63   61   64 1   
    64   61   69 1   
    65   62   63 2   
    66   62   74 1   
    67   64   65 1   
    68   64   70 1   
    69   64   71 1   
    70   65   66 1   
    71   65   67 2   
    72   66   72 1   
    73   66   73 1   
    74   74   75 1   
    75   74   78 1   
    76   75   76 1   
    77   75   79 1   
    78   75   80 1   
    79   76   77 2   
    80   76   81 1   
    81   81   82 1   
    82   81   93 1   
    83   82   83 1   
    84   82   85 1   
    85   82   94 1   
    86   83   84 2   
    87   83  102 1   
    88   85   86 1   
    89   85   95 1   
    90   85   96 1   
    91   86   87 ar  
    92   86   88 ar  
    93   87   89 ar  
    94   87   97 1   
    95   88   90 ar  
    96   88   98 1   
    97   89   91 ar  
    98   89   99 1   
    99   90   91 ar  
   100   90  100 1   
   101   91   92 1   
   102   92  101 1   
   103  102  103 1   
   104  102  110 1   
   105  103  104 1   
   106  103  106 1   
   107  103  111 1   
   108  104  105 2   
   109  104  121 1   
   110  106  107 1   
   111  106  108 1   
   112  106  112 1   
   113  107  109 1   
   114  107  113 1   
   115  107  114 1   
   116  108  115 1   
   117  108  116 1   
   118  108  117 1   
   119  109  118 1   
   120  109  119 1   
   121  109  120 1   
   122  121  122 1   
   123  121  127 1   
   124  122  123 1   
   125  122  125 1   
   126  122  128 1   
   127  123  124 2   
   128  123  132 1   
   129  125  126 1   
   130  125  129 1   
   131  125  130 1   
   132  126  131 1   
   133  132  133 1   
   134  132  137 1   
   135  133  134 1   
   136  133  136 1   
   137  133  138 1   
   138  134  135 2   
   139  134  142 1   
   140  136  139 1   
   141  136  140 1   
   142  136  141 1   
   143  142  143 1   
   144  142  147 1   
   145  143  144 1   
   146  143  146 1   
   147  143  148 1   
   148  144  145 2   
   149  144  152 1   
   150  146  149 1   
   151  146  150 1   
   152  146  151 1   
   153  152  153 1   
   154  152  161 1   
   155  153  154 1   
   156  153  156 1   
   157  153  162 1   
   158  154  155 2   
   159  154  167 1   
   160  156  157 1   
   161  156  163 1   
   162  156  164 1   
   163  157  158 1   
   164  157  165 1   
   165  157  166 1   
   166  158  159 1   
   167  158  160 1   
   168  167  168 1   
   169  167  172 1   
   170  168  169 1   
   171  168  170 1   
   172  168  171 1   
   173  174  175 1   
   174  174  176 1   
   175  177  178 1   
   176  177  179 1   
   177  180  181 1   
   178  180  182 1   
   179  183  184 1   
   180  183  185 1   
@<TRIPOS>SUBSTRUCTURE
     1 MOL         1 TEMP              0 ****  ****    0 ROOT
