@<TRIPOS>MOLECULE
MOL
  192   187     1     0     0
SMALL
resp


@<TRIPOS>ATOM
      1 C1          9.4230    0.3300    2.1330 c3        1 MOL     -0.473336
      2 C2          8.2470   -0.1240    1.2320 c         1 MOL      0.734796
      3 O1          7.1590   -0.2540    1.7630 o         1 MOL     -0.610561
      4 H1          9.3080   -0.1020    3.1260 hc        1 MOL      0.116129
      5 H2         10.3650   -0.0050    1.6980 hc        1 MOL      0.116129
      6 H3          9.4250    1.4170    2.2080 hc        1 MOL      0.116129
      7 N1          8.5450   -0.2710   -0.0780 n         1 MOL     -0.474130
      8 C3          7.4220   -0.4960   -1.0350 c3        1 MOL      0.139469
      9 C4          6.8270   -1.9590   -1.0480 c         1 MOL      0.373741
     10 O2          6.5450   -2.4950   -2.1400 o         1 MOL     -0.486416
     11 C5          7.8000    0.0220   -2.4040 c3        1 MOL     -0.113972
     12 C6          9.2210   -0.4020   -2.9300 c         1 MOL      0.625262
     13 O3          9.3730   -0.9240   -4.0750 o         1 MOL     -0.615864
     14 O4         10.2030    0.0230   -2.2830 o         1 MOL     -0.615864
     15 H4          9.4790   -0.0870   -0.4180 hn        1 MOL      0.232837
     16 H5          6.5270    0.0400   -0.7260 h1        1 MOL      0.029612
     17 H6          7.6350    1.0930   -2.3260 hc        1 MOL      0.050594
     18 H7          6.9900   -0.3120   -3.0600 hc        1 MOL      0.050594
     19 N2          6.5010   -2.4790    0.1190 n         1 MOL     -0.080760
     20 C7          5.8070   -3.7330    0.3460 c3        1 MOL      0.119612
     21 C8          4.4130   -3.9120   -0.2080 c         1 MOL      0.545913
     22 O5          4.1350   -4.9090   -0.7890 o         1 MOL     -0.554788
     23 C9          5.8990   -4.2640    1.7990 c3        1 MOL      0.016907
     24 C10         7.2730   -3.9840    2.4390 c3        1 MOL     -0.042749
     25 C11         7.5860   -5.0560    3.4950 c3        1 MOL     -0.086274
     26 C12         9.0360   -4.7670    3.8750 c3        1 MOL      0.139003
     27 N3          9.4140   -5.3480    5.1330 n4        1 MOL     -0.157527
     28 H8          6.9910   -1.9910    0.8480 hn        1 MOL     -0.096227
     29 H9          6.4010   -4.4850   -0.1790 h1        1 MOL      0.007317
     30 H10         5.5970   -5.2980    1.6870 hc        1 MOL      0.013110
     31 H11         5.1080   -3.8040    2.3930 hc        1 MOL      0.013110
     32 H12         7.3330   -2.9810    2.8810 hc        1 MOL      0.069257
     33 H13         8.0280   -4.0960    1.6560 hc        1 MOL      0.069257
     34 H14         7.5760   -6.0830    3.1380 hc        1 MOL      0.040256
     35 H15         6.8900   -4.8280    4.3030 hc        1 MOL      0.040256
     36 H16         9.0080   -3.6810    3.9550 hx        1 MOL      0.028951
     37 H17         9.7260   -5.0430    3.0810 hx        1 MOL      0.028951
     38 H18         8.6610   -5.9000    5.5120 hn        1 MOL      0.228728
     39 H19        10.2020   -5.9630    5.0480 hn        1 MOL      0.228728
     40 H20         9.6690   -4.6580    5.8410 hn        1 MOL      0.228728
     41 N4          3.5030   -2.9780   -0.1220 n         1 MOL     -0.508510
     42 C13         3.6730   -1.7080    0.6330 c3        1 MOL      0.079603
     43 C14         3.6830   -0.4590   -0.2950 c         1 MOL      0.193681
     44 O6          3.6320   -0.5420   -1.4980 o         1 MOL     -0.358049
     45 C15         2.5210   -1.7220    1.6030 c3        1 MOL     -0.268107
     46 C16         1.1680   -1.8850    0.8350 c         1 MOL      0.830944
     47 O7          0.8120   -1.0700   -0.0060 o         1 MOL     -0.719561
     48 O8          0.4380   -2.9090    1.0810 o         1 MOL     -0.719561
     49 H21         2.7850   -3.0230   -0.8320 hn        1 MOL      0.387089
     50 H22         4.6170   -1.7040    1.1850 h1        1 MOL      0.135365
     51 H23         2.5450   -0.7940    2.1680 hc        1 MOL      0.036884
     52 H24         2.6990   -2.5210    2.3180 hc        1 MOL      0.036884
     53 N5          3.9450    0.7080    0.2520 n         1 MOL     -0.221678
     54 C17         4.2010    1.9370   -0.4570 c3        1 MOL     -0.126669
     55 C18         2.9210    2.7240   -0.8880 c         1 MOL      0.585333
     56 O9          1.7980    2.3880   -0.5730 o         1 MOL     -0.633962
     57 H25         4.0290    0.7400    1.2610 hn        1 MOL      0.253870
     58 H26         4.7170    1.7070   -1.3860 h1        1 MOL      0.106613
     59 H27         4.8950    2.5380    0.1320 h1        1 MOL      0.106613
     60 N6          3.1910    3.9280   -1.5750 n         1 MOL     -0.553037
     61 C19         2.1500    4.7880   -2.0860 c3        1 MOL      0.408767
     62 C20         2.5080    6.2960   -2.0880 c         1 MOL      0.421737
     63 O10         3.7030    6.6560   -2.0380 o         1 MOL     -0.525908
     64 C21         1.8770    4.2720   -3.5340 c3        1 MOL     -0.378347
     65 C22         1.3440    2.8590   -3.5310 c         1 MOL      0.742496
     66 O11         0.2710    2.6430   -2.9650 o         1 MOL     -0.671281
     67 O12         2.1480    1.9790   -3.9760 o         1 MOL     -0.671281
     68 H28         4.1600    4.2020   -1.6270 hn        1 MOL      0.283968
     69 H29         1.3350    4.6430   -1.3830 h1        1 MOL      0.030758
     70 H30         2.7510    4.4430   -4.1580 hc        1 MOL      0.083087
     71 H31         1.1470    4.9380   -4.0040 hc        1 MOL      0.083087
     72 N7          1.5300    7.2210   -2.1710 n         1 MOL     -0.436994
     73 C23         0.0330    7.0590   -2.1000 c3        1 MOL     -0.120710
     74 C24        -0.4260    6.5960   -0.7190 c         1 MOL      0.555813
     75 O13         0.3460    6.7390    0.2360 o         1 MOL     -0.465879
     76 H32         1.8540    8.1490   -2.4130 hn        1 MOL      0.316282
     77 H33        -0.4190    6.5170   -2.9240 h1        1 MOL      0.089072
     78 H34        -0.3030    8.0940   -2.1840 h1        1 MOL      0.089072
     79 N8         -1.6920    6.1270   -0.6330 n         1 MOL     -0.555904
     80 C25        -2.3020    5.3580    0.4960 c3        1 MOL     -0.011582
     81 C26        -1.5030    4.0770    0.8670 c         1 MOL      0.898953
     82 O14        -1.0040    3.4080   -0.0620 o         1 MOL     -0.636331
     83 C27        -3.8140    5.0520    0.2490 c3        1 MOL      0.263743
     84 C28        -4.3850    4.0450    1.2270 c3        1 MOL     -0.265760
     85 O15        -4.0020    4.4170   -0.9960 oh        1 MOL     -0.605401
     86 H35        -2.1770    6.1580   -1.5220 hn        1 MOL      0.296350
     87 H36        -2.3660    6.0350    1.3510 h1        1 MOL      0.039879
     88 H37        -4.4420    5.9370    0.3550 h1        1 MOL      0.033981
     89 H38        -4.7260    4.8950   -1.3900 ho        1 MOL      0.410217
     90 H39        -3.9470    3.0610    1.0610 hc        1 MOL      0.066393
     91 H40        -4.2570    4.3530    2.2620 hc        1 MOL      0.066393
     92 H41        -5.4540    4.0430    1.0560 hc        1 MOL      0.066393
     93 N9         -1.5680    3.7930    2.1640 n         1 MOL     -0.603656
     94 C29        -0.9490    2.6720    2.8250 c3        1 MOL     -0.091088
     95 C30        -1.4340    1.2990    2.3370 c         1 MOL      0.684617
     96 O16        -1.0690    0.8210    1.2880 o         1 MOL     -0.639486
     97 C31         0.6230    2.8730    2.8110 c3        1 MOL     -0.009949
     98 C32         1.0830    4.2980    3.2870 c3        1 MOL     -0.078044
     99 C33         1.3430    1.8210    3.7130 c3        1 MOL     -0.453995
    100 C34         2.3820    4.7510    2.6190 c3        1 MOL      0.001190
    101 H42        -2.1220    4.3870    2.7760 hn        1 MOL      0.322277
    102 H43        -1.2860    2.7430    3.8560 h1        1 MOL      0.071163
    103 H44         0.8890    2.7030    1.7680 hc        1 MOL      0.167637
    104 H45         1.3130    4.2460    4.3520 hc        1 MOL      0.028648
    105 H46         0.4350    5.1270    3.0120 hc        1 MOL      0.028648
    106 H47         1.5280    2.0730    4.7600 hc        1 MOL      0.132269
    107 H48         0.9310    0.8170    3.5530 hc        1 MOL      0.132269
    108 H49         2.3300    1.6190    3.2960 hc        1 MOL      0.132269
    109 H50         3.2450    4.0920    2.6680 hc        1 MOL      0.004205
    110 H51         2.1830    4.9940    1.5740 hc        1 MOL      0.004205
    111 H52         2.6730    5.6570    3.1480 hc        1 MOL      0.004205
    112 N10        -2.2260    0.6310    3.1640 n         1 MOL     -0.339021
    113 C35        -2.5510   -0.7580    3.0120 c3        1 MOL     -0.052100
    114 C36        -4.0910   -1.0220    3.0030 c         1 MOL      0.573230
    115 O17        -4.5740   -2.1180    2.9980 o         1 MOL     -0.582531
    116 C37        -1.7860   -1.5350    4.0860 c3        1 MOL      0.368289
    117 C38        -1.9640   -0.9470    5.5180 c3        1 MOL     -0.356108
    118 O18        -0.4770   -1.5090    3.6490 oh        1 MOL     -0.576511
    119 H53        -2.5720    1.1740    3.9420 hn        1 MOL      0.233417
    120 H54        -2.2160   -1.0210    2.0040 h1        1 MOL      0.088207
    121 H55        -2.0350   -2.6000    4.0690 h1        1 MOL      0.015472
    122 H56        -0.4220   -1.9900    2.8190 ho        1 MOL      0.340515
    123 H57        -1.7750    0.1150    5.6080 hc        1 MOL      0.090417
    124 H58        -2.9770   -1.0930    5.8840 hc        1 MOL      0.090417
    125 H59        -1.2310   -1.3770    6.1880 hc        1 MOL      0.090417
    126 N11        -4.9390    0.0250    3.0680 n         1 MOL     -0.353450
    127 C39        -6.3810   -0.1530    2.8940 c3        1 MOL      0.055673
    128 C40        -6.7590   -0.6830    1.4960 c         1 MOL      0.414231
    129 O19        -7.2880    0.0580    0.6500 o         1 MOL     -0.504397
    130 C41        -7.2780    0.9460    3.4740 c3        1 MOL      0.606462
    131 C42        -8.6880    0.4180    3.8730 c3        1 MOL     -0.436625
    132 O20        -6.6750    1.5110    4.5830 oh        1 MOL     -0.670406
    133 H60        -4.4710    0.9170    3.0170 hn        1 MOL      0.169809
    134 H61        -6.5890   -0.9960    3.5470 h1        1 MOL      0.069508
    135 H62        -7.4660    1.6990    2.7060 h1        1 MOL     -0.102874
    136 H63        -7.0390    2.3970    4.6600 ho        1 MOL      0.393860
    137 H64        -9.3600    1.2400    4.1030 hc        1 MOL      0.103612
    138 H65        -8.9630   -0.1270    2.9710 hc        1 MOL      0.103612
    139 H66        -8.5190   -0.2990    4.6850 hc        1 MOL      0.103612
    140 N12        -6.6840   -1.9890    1.1890 n         1 MOL     -0.723849
    141 C43        -6.5850   -2.5490   -0.1810 c3        1 MOL      0.336340
    142 C44        -5.2240   -2.0780   -0.8690 c         1 MOL      0.580334
    143 O21        -4.7460   -0.9770   -0.7400 o         1 MOL     -0.482254
    144 C45        -7.8080   -2.3450   -1.1490 c3        1 MOL     -0.374443
    145 C46        -9.0800   -2.7400   -0.4510 c3        1 MOL      0.087768
    146 C47       -10.2630   -2.6530   -1.4430 c3        1 MOL     -0.257660
    147 C48       -11.6440   -3.0170   -0.7590 c3        1 MOL      0.069047
    148 N13       -12.8230   -2.6000   -1.5510 n4        1 MOL     -0.075876
    149 H67        -6.3230   -2.5560    1.9470 hn        1 MOL      0.382126
    150 H68        -6.5540   -3.6180    0.0140 h1        1 MOL      0.017571
    151 H69        -7.5260   -2.9630   -1.9930 hc        1 MOL      0.119973
    152 H70        -7.8950   -1.3430   -1.5610 hc        1 MOL      0.119973
    153 H71        -9.2030   -2.0670    0.3980 hc        1 MOL      0.047305
    154 H72        -8.9970   -3.7380   -0.0270 hc        1 MOL      0.047305
    155 H73       -10.0570   -3.2780   -2.3070 hc        1 MOL      0.115784
    156 H74       -10.3630   -1.5800   -1.6190 hc        1 MOL      0.115784
    157 H75       -11.6190   -2.4370    0.1580 hx        1 MOL      0.052240
    158 H76       -11.7690   -4.0810   -0.5740 hx        1 MOL      0.052240
    159 H77       -12.8060   -2.8570   -2.5290 hn        1 MOL      0.177379
    160 H78       -13.6500   -3.0070   -1.1390 hn        1 MOL      0.177379
    161 H79       -12.9360   -1.6040   -1.6020 hn        1 MOL      0.177379
    162 N14        -4.7370   -2.9050   -1.7330 n         1 MOL     -0.639318
    163 C49        -3.4480   -2.8460   -2.4940 c3        1 MOL      0.425477
    164 C50        -2.2500   -2.4770   -1.5160 c         1 MOL      0.223034
    165 O22        -1.7450   -1.3740   -1.6560 o         1 MOL     -0.477739
    166 C51        -3.0480   -3.9600   -3.4070 c3        1 MOL     -0.045169
    167 C52        -3.9450   -3.9740   -4.7290 c3        1 MOL     -0.287721
    168 C53        -3.3570   -5.1090   -5.5990 c         1 MOL      0.672704
    169 O23        -3.9590   -6.1990   -5.7420 o         1 MOL     -0.614606
    170 O24        -2.1970   -4.9940   -6.0790 o         1 MOL     -0.614606
    171 H80        -5.2220   -3.7850   -1.7890 hn        1 MOL      0.293301
    172 H81        -3.5170   -1.9460   -3.1030 h1        1 MOL      0.015295
    173 H82        -3.1510   -4.9550   -2.9800 hc        1 MOL      0.073376
    174 H83        -2.0450   -3.8020   -3.8060 hc        1 MOL      0.073376
    175 H84        -3.7990   -3.0520   -5.2820 hc        1 MOL      0.039758
    176 H85        -5.0010   -4.1070   -4.4810 hc        1 MOL      0.039758
    177 N15        -1.8420   -3.1890   -0.4080 n         1 MOL     -0.297834
    178 C54        -2.3580   -4.4800   -0.0160 c3        1 MOL     -0.017524
    179 H86        -2.8500   -4.9480   -0.8690 h1        1 MOL      0.017939
    180 H87        -1.5380   -5.1120    0.3230 h1        1 MOL      0.017939
    181 H88        -3.0780   -4.3530    0.7930 h1        1 MOL      0.017939
    182 H89        -1.1240   -2.8920    0.2300 hn        1 MOL      0.373057
    183 Ca1        -0.4400    0.8060   -1.2230 Ca        1 MOL      1.796466
    184 O25         1.2960   -0.2090   -2.8840 oh        1 MOL     -0.868875
    185 H90         1.5550    0.5100   -3.4730 ho        1 MOL      0.407674
    186 H91         2.0490   -0.8100   -2.9000 ho        1 MOL      0.407674
    187 O26        -1.4910    0.6410   -3.7740 oh        1 MOL     -0.868875
    188 H92        -2.4040    0.8580   -3.9880 ho        1 MOL      0.407674
    189 H93        -0.9910    0.9940   -4.5080 ho        1 MOL      0.407674
    190 O27        -3.0810    1.3010   -1.0750 oh        1 MOL     -0.868875
    191 H94        -3.6500    0.5410   -1.2220 ho        1 MOL      0.407674
    192 H95        -3.6910    2.0250   -0.9380 ho        1 MOL      0.407674
@<TRIPOS>BOND
     1    1    2 1   
     2    1    4 1   
     3    1    5 1   
     4    1    6 1   
     5    2    3 2   
     6    2    7 1   
     7    7    8 1   
     8    7   15 1   
     9    8    9 1   
    10    8   11 1   
    11    8   16 1   
    12    9   10 2   
    13    9   19 1   
    14   11   12 1   
    15   11   17 1   
    16   11   18 1   
    17   12   13 1   
    18   12   14 1   
    19   19   20 1   
    20   19   28 1   
    21   20   21 1   
    22   20   23 1   
    23   20   29 1   
    24   21   22 2   
    25   21   41 1   
    26   23   24 1   
    27   23   30 1   
    28   23   31 1   
    29   24   25 1   
    30   24   32 1   
    31   24   33 1   
    32   25   26 1   
    33   25   34 1   
    34   25   35 1   
    35   26   27 1   
    36   26   36 1   
    37   26   37 1   
    38   27   38 1   
    39   27   39 1   
    40   27   40 1   
    41   41   42 1   
    42   41   49 1   
    43   42   43 1   
    44   42   45 1   
    45   42   50 1   
    46   43   44 2   
    47   43   53 1   
    48   45   46 1   
    49   45   51 1   
    50   45   52 1   
    51   46   47 1   
    52   46   48 1   
    53   53   54 1   
    54   53   57 1   
    55   54   55 1   
    56   54   58 1   
    57   54   59 1   
    58   55   56 2   
    59   55   60 1   
    60   60   61 1   
    61   60   68 1   
    62   61   62 1   
    63   61   64 1   
    64   61   69 1   
    65   62   63 2   
    66   62   72 1   
    67   64   65 1   
    68   64   70 1   
    69   64   71 1   
    70   65   66 1   
    71   65   67 1   
    72   72   73 1   
    73   72   76 1   
    74   73   74 1   
    75   73   77 1   
    76   73   78 1   
    77   74   75 2   
    78   74   79 1   
    79   79   80 1   
    80   79   86 1   
    81   80   81 1   
    82   80   83 1   
    83   80   87 1   
    84   81   82 2   
    85   81   93 1   
    86   83   84 1   
    87   83   85 1   
    88   83   88 1   
    89   84   90 1   
    90   84   91 1   
    91   84   92 1   
    92   85   89 1   
    93   93   94 1   
    94   93  101 1   
    95   94   95 1   
    96   94   97 1   
    97   94  102 1   
    98   95   96 2   
    99   95  112 1   
   100   97   98 1   
   101   97   99 1   
   102   97  103 1   
   103   98  100 1   
   104   98  104 1   
   105   98  105 1   
   106   99  106 1   
   107   99  107 1   
   108   99  108 1   
   109  100  109 1   
   110  100  110 1   
   111  100  111 1   
   112  112  113 1   
   113  112  119 1   
   114  113  114 1   
   115  113  116 1   
   116  113  120 1   
   117  114  115 2   
   118  114  126 1   
   119  116  117 1   
   120  116  118 1   
   121  116  121 1   
   122  117  123 1   
   123  117  124 1   
   124  117  125 1   
   125  118  122 1   
   126  126  127 1   
   127  126  133 1   
   128  127  128 1   
   129  127  130 1   
   130  127  134 1   
   131  128  129 2   
   132  128  140 1   
   133  130  131 1   
   134  130  132 1   
   135  130  135 1   
   136  131  137 1   
   137  131  138 1   
   138  131  139 1   
   139  132  136 1   
   140  140  141 1   
   141  140  149 1   
   142  141  142 1   
   143  141  144 1   
   144  141  150 1   
   145  142  143 2   
   146  142  162 1   
   147  144  145 1   
   148  144  151 1   
   149  144  152 1   
   150  145  146 1   
   151  145  153 1   
   152  145  154 1   
   153  146  147 1   
   154  146  155 1   
   155  146  156 1   
   156  147  148 1   
   157  147  157 1   
   158  147  158 1   
   159  148  159 1   
   160  148  160 1   
   161  148  161 1   
   162  162  163 1   
   163  162  171 1   
   164  163  164 1   
   165  163  166 1   
   166  163  172 1   
   167  164  165 2   
   168  164  177 1   
   169  166  167 1   
   170  166  173 1   
   171  166  174 1   
   172  167  168 1   
   173  167  175 1   
   174  167  176 1   
   175  168  169 1   
   176  168  170 1   
   177  177  178 1   
   178  177  182 1   
   179  178  179 1   
   180  178  180 1   
   181  178  181 1   
   182  184  185 1   
   183  184  186 1   
   184  187  188 1   
   185  187  189 1   
   186  190  191 1   
   187  190  192 1   
@<TRIPOS>SUBSTRUCTURE
     1 MOL         1 TEMP              0 ****  ****    0 ROOT
