@<TRIPOS>MOLECULE
MOL
  195   189     1     0     0
SMALL
resp


@<TRIPOS>ATOM
      1 C1          6.1800   -5.2810   -3.3240 c3        1 MOL     -0.255006
      2 C2          5.6150   -4.0850   -2.5200 c         1 MOL      0.700320
      3 O1          5.2130   -4.2170   -1.3660 o         1 MOL     -0.575031
      4 H1          6.1150   -5.0640   -4.3910 hc        1 MOL      0.067272
      5 H2          7.2220   -5.4440   -3.0510 hc        1 MOL      0.067272
      6 H3          5.6010   -6.1760   -3.1000 hc        1 MOL      0.067272
      7 N1          5.5590   -2.8330   -3.1160 n         1 MOL     -0.649182
      8 C3          5.1310   -1.6250   -2.3460 c3        1 MOL      0.720999
      9 C4          3.6480   -1.5010   -1.8490 c         1 MOL      0.071204
     10 O2          3.2440   -0.4060   -1.3830 o         1 MOL     -0.227664
     11 C5          5.4920   -0.3310   -3.1160 c3        1 MOL     -0.267547
     12 C6          6.8490   -0.1280   -3.7420 c         1 MOL      0.717219
     13 O3          7.4600    0.8960   -3.3140 o         1 MOL     -0.704182
     14 O4          7.3630   -0.9460   -4.4580 o         1 MOL     -0.704182
     15 H4          5.9170   -2.7200   -4.0500 hn        1 MOL      0.288230
     16 H5          5.8320   -1.6660   -1.5150 h1        1 MOL     -0.041038
     17 H6          5.2970    0.5500   -2.4980 hc        1 MOL     -0.009543
     18 H7          4.8840   -0.4670   -4.0180 hc        1 MOL     -0.009543
     19 N2          2.8110   -2.5390   -1.9030 n         1 MOL     -0.514785
     20 C7          1.3250   -2.5550   -1.9810 c3        1 MOL      0.461246
     21 C8          0.6380   -3.3550   -0.8490 c         1 MOL      0.305831
     22 O5          1.1660   -4.4020   -0.5020 o         1 MOL     -0.508555
     23 C9          0.7680   -3.1230   -3.3050 c3        1 MOL     -0.258073
     24 C10         1.1450   -2.1780   -4.4820 c3        1 MOL      0.130760
     25 C11         0.3870   -2.4900   -5.7620 c3        1 MOL      0.170421
     26 C12         1.0600   -1.8640   -6.9030 c3        1 MOL      0.029713
     27 N3          0.0770   -1.8580   -8.0260 n4        1 MOL     -0.253287
     28 H8          3.2590   -3.4230   -2.1190 hn        1 MOL      0.256854
     29 H9          0.9380   -1.5430   -1.8730 h1        1 MOL      0.019686
     30 H10        -0.3230   -3.1180   -3.2470 hc        1 MOL      0.070678
     31 H11         1.1910   -4.1050   -3.5170 hc        1 MOL      0.070678
     32 H12         2.2250   -2.2790   -4.5620 hc        1 MOL     -0.059619
     33 H13         0.8870   -1.1510   -4.2080 hc        1 MOL     -0.059619
     34 H14        -0.6840   -2.3050   -5.7170 hc        1 MOL     -0.028768
     35 H15         0.4480   -3.5790   -5.8820 hc        1 MOL     -0.028768
     36 H16         1.9810   -2.3800   -7.1700 hx        1 MOL      0.069280
     37 H17         1.2580   -0.8220   -6.6490 hx        1 MOL      0.069280
     38 H18        -0.4090   -2.7170   -8.2470 hn        1 MOL      0.294207
     39 H19        -0.6270   -1.1420   -7.9600 hn        1 MOL      0.294207
     40 H20         0.5790   -1.6410   -8.8750 hn        1 MOL      0.294207
     41 N4         -0.4520   -3.0470   -0.2150 n         1 MOL     -0.323330
     42 C13        -1.2650   -1.7850   -0.3790 c3        1 MOL     -0.011772
     43 C14        -1.8120   -1.4020   -1.8220 c         1 MOL      0.429523
     44 O6         -1.0700   -0.7130   -2.5530 o         1 MOL     -0.549913
     45 C15        -0.5650   -0.6770    0.4130 c3        1 MOL     -0.001446
     46 C16        -0.2430   -1.0900    1.8650 c         1 MOL      0.778030
     47 O7         -1.1960   -1.7250    2.4130 o         1 MOL     -0.804862
     48 O8          0.8240   -1.0070    2.4650 o         1 MOL     -0.804862
     49 H21        -0.4740   -3.4780    0.6970 hn        1 MOL      0.226705
     50 H22        -2.1520   -1.9990    0.2160 h1        1 MOL      0.101489
     51 H23        -1.3100    0.1260    0.4520 hc        1 MOL      0.033605
     52 H24         0.3100   -0.3460   -0.1560 hc        1 MOL      0.033605
     53 N5         -3.0570   -1.7050   -2.1970 n         1 MOL     -0.267702
     54 C17        -4.0740   -2.5160   -1.4980 c3        1 MOL     -0.000801
     55 C18        -5.0830   -3.0500   -2.5270 c         1 MOL      0.525518
     56 O9         -4.8480   -2.8960   -3.7240 o         1 MOL     -0.564148
     57 H25        -3.2880   -1.4810   -3.1500 hn        1 MOL      0.270848
     58 H26        -4.6400   -1.9040   -0.7850 h1        1 MOL      0.016348
     59 H27        -3.5590   -3.1810   -0.8110 h1        1 MOL      0.016348
     60 N6         -6.1910   -3.6780   -2.1500 n         1 MOL     -0.320354
     61 C19        -6.4580   -4.0080   -0.7480 c3        1 MOL     -0.144580
     62 C20        -7.1260   -2.7680   -0.0580 c         1 MOL      0.583907
     63 O10        -7.5310   -1.7570   -0.6580 o         1 MOL     -0.454630
     64 C21        -7.3690   -5.2770   -0.5840 c3        1 MOL     -0.173511
     65 C22        -8.6410   -5.0330   -1.3950 c         1 MOL      0.744911
     66 O11        -8.6440   -5.1370   -2.6300 o         1 MOL     -0.679963
     67 O12        -9.6820   -4.6920   -0.8020 o         1 MOL     -0.679963
     68 H28        -6.8460   -4.0540   -2.8260 hn        1 MOL      0.279082
     69 H29        -5.5400   -4.2620   -0.2170 h1        1 MOL      0.079990
     70 H30        -7.7430   -5.5720    0.3950 hc        1 MOL      0.027369
     71 H31        -6.9580   -6.1910   -1.0150 hc        1 MOL      0.027369
     72 N7         -6.9960   -2.7690    1.3000 n         1 MOL     -0.397690
     73 C23        -7.5410   -1.8080    2.2640 c3        1 MOL     -0.176901
     74 C24        -6.9800   -0.3310    2.4050 c         1 MOL      0.494383
     75 O13        -7.7460    0.6150    2.5890 o         1 MOL     -0.550370
     76 H32        -6.6320   -3.6350    1.6680 hn        1 MOL      0.260040
     77 H33        -7.3290   -2.2660    3.2380 h1        1 MOL      0.121174
     78 H34        -8.6170   -1.7860    2.1020 h1        1 MOL      0.121174
     79 N8         -5.6970   -0.0430    2.2570 n         1 MOL     -0.295170
     80 C25        -5.0440    1.2390    2.1580 c3        1 MOL     -0.008083
     81 C26        -4.9000    1.9160    0.7960 c         1 MOL      0.630134
     82 O14        -4.3450    1.2800   -0.0950 o         1 MOL     -0.540521
     83 C27        -3.6360    1.1500    2.7960 c3        1 MOL      0.550920
     84 C28        -3.5170    0.4740    4.2280 c3        1 MOL     -0.375306
     85 O15        -3.2530    2.4660    3.0020 oh        1 MOL     -0.635824
     86 H35        -5.1540   -0.8870    2.1380 hn        1 MOL      0.194901
     87 H36        -5.5290    1.9380    2.8540 h1        1 MOL      0.074880
     88 H37        -2.9310    0.5430    2.2320 h1        1 MOL     -0.118855
     89 H38        -2.3120    2.2980    2.9110 ho        1 MOL      0.406236
     90 H39        -3.8490   -0.5540    4.3890 hc        1 MOL      0.070324
     91 H40        -2.4410    0.4650    4.3940 hc        1 MOL      0.070324
     92 H41        -4.0960    1.0570    4.9380 hc        1 MOL      0.070324
     93 N9         -5.1740    3.2400    0.6070 n         1 MOL     -0.474540
     94 C29        -5.3490    3.8360   -0.7280 c3        1 MOL     -0.179110
     95 C30        -4.0410    4.5070   -1.2970 c         1 MOL      0.515252
     96 O16        -4.1650    4.9480   -2.4170 o         1 MOL     -0.529650
     97 C31        -6.4600    4.9000   -0.7050 c3        1 MOL      0.209505
     98 C32        -6.0820    6.2140   -0.0690 c3        1 MOL      0.270349
     99 C33        -7.7140    4.3210   -0.0090 c3        1 MOL     -0.334930
    100 C34        -7.2170    7.2270   -0.2040 c3        1 MOL     -0.368189
    101 H42        -5.5490    3.7300    1.4030 hn        1 MOL      0.294884
    102 H43        -5.6140    3.1320   -1.5140 h1        1 MOL      0.159999
    103 H44        -6.7560    5.0580   -1.7400 hc        1 MOL      0.001626
    104 H45        -5.1730    6.7250   -0.3600 hc        1 MOL     -0.052978
    105 H46        -5.9960    6.0270    1.0030 hc        1 MOL     -0.052978
    106 H47        -8.6350    4.8110   -0.3100 hc        1 MOL      0.090449
    107 H48        -7.9360    3.3340   -0.3830 hc        1 MOL      0.090449
    108 H49        -7.5810    4.2930    1.0770 hc        1 MOL      0.090449
    109 H50        -6.8780    8.1930    0.1760 hc        1 MOL      0.076479
    110 H51        -7.3780    7.4520   -1.2600 hc        1 MOL      0.076479
    111 H52        -8.1580    6.8940    0.2350 hc        1 MOL      0.076479
    112 N10        -2.9060    4.4850   -0.5300 n         1 MOL     -0.292844
    113 C35        -1.5470    4.9040   -1.0100 c3        1 MOL     -0.035238
    114 C36        -0.5510    3.7160   -0.9920 c         1 MOL      0.757110
    115 O17        -0.5760    2.9330   -0.0540 o         1 MOL     -0.603905
    116 C37        -1.1170    6.1930   -0.2030 c3        1 MOL      0.305904
    117 C38        -1.0020    5.9220    1.3070 c3        1 MOL     -0.364511
    118 O18        -2.0900    7.2910   -0.3410 oh        1 MOL     -0.640712
    119 H53        -2.9570    4.0540    0.3820 hn        1 MOL      0.161480
    120 H54        -1.6270    5.1400   -2.0710 h1        1 MOL      0.089373
    121 H55        -0.2270    6.5800   -0.7070 h1        1 MOL      0.005075
    122 H56        -1.7640    8.0360    0.1700 ho        1 MOL      0.399808
    123 H57        -1.7570    5.1850    1.6020 hc        1 MOL      0.095949
    124 H58         0.0040    5.5370    1.4730 hc        1 MOL      0.095949
    125 H59        -1.0370    6.8480    1.8790 hc        1 MOL      0.095949
    126 N11         0.2600    3.5540   -2.0350 n         1 MOL     -0.709773
    127 C39         1.4160    2.6310   -1.8270 c3        1 MOL      0.197812
    128 C40         2.4730    3.3310   -0.9130 c         1 MOL      0.424359
    129 O19         2.4560    4.5660   -0.8140 o         1 MOL     -0.550736
    130 C41         1.9810    2.1280   -3.1140 c3        1 MOL      0.553969
    131 C42         2.7030    3.1890   -3.8910 c3        1 MOL     -0.298936
    132 O20         0.9700    1.5920   -3.9010 oh        1 MOL     -0.649319
    133 H60         0.3210    4.2900   -2.7250 hn        1 MOL      0.339924
    134 H61         1.0940    1.7000   -1.3800 h1        1 MOL      0.025804
    135 H62         2.7270    1.3770   -2.8650 h1        1 MOL     -0.118724
    136 H63         0.5540    0.8610   -3.4430 ho        1 MOL      0.395071
    137 H64         3.6490    3.4520   -3.4180 hc        1 MOL      0.067425
    138 H65         2.9090    2.9150   -4.9190 hc        1 MOL      0.067425
    139 H66         2.0530    4.0670   -3.9000 hc        1 MOL      0.067425
    140 N12         3.3890    2.4710   -0.3930 n         1 MOL     -0.376989
    141 C43         4.4610    2.7740    0.4960 c3        1 MOL      0.021055
    142 C44         4.8610    1.5320    1.4520 c         1 MOL      0.547676
    143 O21         5.3430    1.7320    2.5390 o         1 MOL     -0.629279
    144 C45         5.6750    3.2600   -0.4190 c3        1 MOL     -0.104179
    145 C46         7.0160    3.4340    0.4030 c3        1 MOL     -0.152746
    146 C47         6.9380    4.4990    1.5000 c3        1 MOL     -0.006065
    147 C48         6.9230    5.8990    0.8740 c3        1 MOL      0.086134
    148 N13         6.4200    6.9400    1.7900 n4        1 MOL     -0.410448
    149 H67         3.3800    1.5020   -0.6850 hn        1 MOL      0.224164
    150 H68         4.2400    3.6260    1.1370 h1        1 MOL      0.080489
    151 H69         5.4590    4.1480   -1.0110 hc        1 MOL      0.080484
    152 H70         5.7750    2.4680   -1.1530 hc        1 MOL      0.080484
    153 H71         7.8270    3.7900   -0.2350 hc        1 MOL      0.091949
    154 H72         7.3400    2.5140    0.8810 hc        1 MOL      0.091949
    155 H73         7.8800    4.5560    2.0510 hc        1 MOL      0.026468
    156 H74         6.1150    4.3810    2.2070 hc        1 MOL      0.026468
    157 H75         6.3170    5.8280   -0.0220 hx        1 MOL      0.051957
    158 H76         7.9680    6.0840    0.6320 hx        1 MOL      0.051957
    159 H77         6.9720    6.8840    2.6390 hn        1 MOL      0.327348
    160 H78         6.5440    7.8180    1.3130 hn        1 MOL      0.327348
    161 H79         5.4430    6.7460    1.9400 hn        1 MOL      0.327348
    162 N14         4.6540    0.2780    1.0120 n         1 MOL     -0.135625
    163 C49         4.9560   -0.8290    1.8980 c3        1 MOL     -0.062389
    164 C50         6.4270   -1.2140    1.8610 c         1 MOL      0.430845
    165 O22         6.9830   -1.3160    0.8190 o         1 MOL     -0.461175
    166 C51         4.0180   -2.0460    1.5030 c3        1 MOL      0.202667
    167 C52         4.1220   -3.2850    2.4030 c3        1 MOL     -0.389231
    168 C53         3.9620   -3.0030    3.9330 c         1 MOL      0.678837
    169 O23         4.9780   -2.6610    4.6000 o         1 MOL     -0.715462
    170 O24         2.8440   -2.9280    4.4480 o         1 MOL     -0.715462
    171 H80         4.1450    0.1910    0.1520 hn        1 MOL     -0.066536
    172 H81         4.7130   -0.5230    2.9150 h1        1 MOL      0.137454
    173 H82         4.3790   -2.4500    0.5590 hc        1 MOL      0.025133
    174 H83         2.9750   -1.7020    1.4820 hc        1 MOL      0.025133
    175 H84         4.9790   -3.8920    2.1130 hc        1 MOL      0.108760
    176 H85         3.3060   -3.9420    2.1160 hc        1 MOL      0.108760
    177 N15         7.0770   -1.3120    3.1030 n         1 MOL     -0.272534
    178 C54         8.4480   -1.6390    3.3270 c3        1 MOL     -0.070609
    179 H86         8.5160   -2.4190    4.0860 h1        1 MOL      0.051327
    180 H87         8.8930   -1.9970    2.3990 h1        1 MOL      0.051327
    181 H88         8.9830   -0.7540    3.6690 h1        1 MOL      0.051327
    182 H89         6.5400   -1.0910    3.9290 hn        1 MOL      0.277588
    183 Ca1         0.2970   -2.5010    4.6130 Ca        1 MOL      1.738527
    184 O25         0.6660   -0.0120    5.6920 oh        1 MOL     -0.872399
    185 H90         1.6090   -0.0250    5.8610 ho        1 MOL      0.430610
    186 H91         0.3380    0.7410    6.1800 ho        1 MOL      0.430610
    187 O26         1.9320   -5.1230    5.3170 oh        1 MOL     -0.872399
    188 H92         2.7300   -4.5980    5.2560 ho        1 MOL      0.430610
    189 H93         1.7950   -5.2410    6.2570 ho        1 MOL      0.430610
    190 O27         1.2680   -2.7770    7.2270 oh        1 MOL     -0.872399
    191 H94         1.0870   -2.0910    7.8630 ho        1 MOL      0.430610
    192 H95         1.4450   -3.5540    7.7640 ho        1 MOL      0.430610
    193 O28        -1.6090   -1.7640    6.2760 oh        1 MOL     -0.872399
    194 H96        -1.6740   -0.8980    6.6670 ho        1 MOL      0.430610
    195 H97        -2.5030   -1.9570    5.9780 ho        1 MOL      0.430610
@<TRIPOS>BOND
     1    1    2 1   
     2    1    4 1   
     3    1    5 1   
     4    1    6 1   
     5    2    3 2   
     6    2    7 1   
     7    7    8 1   
     8    7   15 1   
     9    8    9 1   
    10    8   11 1   
    11    8   16 1   
    12    9   10 2   
    13    9   19 1   
    14   11   12 1   
    15   11   17 1   
    16   11   18 1   
    17   12   13 1   
    18   12   14 1   
    19   19   20 1   
    20   19   28 1   
    21   20   21 1   
    22   20   23 1   
    23   20   29 1   
    24   21   22 2   
    25   21   41 1   
    26   23   24 1   
    27   23   30 1   
    28   23   31 1   
    29   24   25 1   
    30   24   32 1   
    31   24   33 1   
    32   25   26 1   
    33   25   34 1   
    34   25   35 1   
    35   26   27 1   
    36   26   36 1   
    37   26   37 1   
    38   27   38 1   
    39   27   39 1   
    40   27   40 1   
    41   41   42 1   
    42   41   49 1   
    43   42   43 1   
    44   42   45 1   
    45   42   50 1   
    46   43   44 2   
    47   43   53 1   
    48   45   46 1   
    49   45   51 1   
    50   45   52 1   
    51   46   47 1   
    52   46   48 1   
    53   53   54 1   
    54   53   57 1   
    55   54   55 1   
    56   54   58 1   
    57   54   59 1   
    58   55   56 2   
    59   55   60 1   
    60   60   61 1   
    61   60   68 1   
    62   61   62 1   
    63   61   64 1   
    64   61   69 1   
    65   62   63 2   
    66   62   72 1   
    67   64   65 1   
    68   64   70 1   
    69   64   71 1   
    70   65   66 1   
    71   65   67 1   
    72   72   73 1   
    73   72   76 1   
    74   73   74 1   
    75   73   77 1   
    76   73   78 1   
    77   74   75 2   
    78   74   79 1   
    79   79   80 1   
    80   79   86 1   
    81   80   81 1   
    82   80   83 1   
    83   80   87 1   
    84   81   82 2   
    85   81   93 1   
    86   83   84 1   
    87   83   85 1   
    88   83   88 1   
    89   84   90 1   
    90   84   91 1   
    91   84   92 1   
    92   85   89 1   
    93   93   94 1   
    94   93  101 1   
    95   94   95 1   
    96   94   97 1   
    97   94  102 1   
    98   95   96 2   
    99   95  112 1   
   100   97   98 1   
   101   97   99 1   
   102   97  103 1   
   103   98  100 1   
   104   98  104 1   
   105   98  105 1   
   106   99  106 1   
   107   99  107 1   
   108   99  108 1   
   109  100  109 1   
   110  100  110 1   
   111  100  111 1   
   112  112  113 1   
   113  112  119 1   
   114  113  114 1   
   115  113  116 1   
   116  113  120 1   
   117  114  115 2   
   118  114  126 1   
   119  116  117 1   
   120  116  118 1   
   121  116  121 1   
   122  117  123 1   
   123  117  124 1   
   124  117  125 1   
   125  118  122 1   
   126  126  127 1   
   127  126  133 1   
   128  127  128 1   
   129  127  130 1   
   130  127  134 1   
   131  128  129 2   
   132  128  140 1   
   133  130  131 1   
   134  130  132 1   
   135  130  135 1   
   136  131  137 1   
   137  131  138 1   
   138  131  139 1   
   139  132  136 1   
   140  140  141 1   
   141  140  149 1   
   142  141  142 1   
   143  141  144 1   
   144  141  150 1   
   145  142  143 2   
   146  142  162 1   
   147  144  145 1   
   148  144  151 1   
   149  144  152 1   
   150  145  146 1   
   151  145  153 1   
   152  145  154 1   
   153  146  147 1   
   154  146  155 1   
   155  146  156 1   
   156  147  148 1   
   157  147  157 1   
   158  147  158 1   
   159  148  159 1   
   160  148  160 1   
   161  148  161 1   
   162  162  163 1   
   163  162  171 1   
   164  163  164 1   
   165  163  166 1   
   166  163  172 1   
   167  164  165 2   
   168  164  177 1   
   169  166  167 1   
   170  166  173 1   
   171  166  174 1   
   172  167  168 1   
   173  167  175 1   
   174  167  176 1   
   175  168  169 1   
   176  168  170 1   
   177  177  178 1   
   178  177  182 1   
   179  178  179 1   
   180  178  180 1   
   181  178  181 1   
   182  184  185 1   
   183  184  186 1   
   184  187  188 1   
   185  187  189 1   
   186  190  191 1   
   187  190  192 1   
   188  193  194 1   
   189  193  195 1   
@<TRIPOS>SUBSTRUCTURE
     1 MOL         1 TEMP              0 ****  ****    0 ROOT
