@<TRIPOS>MOLECULE
MOL
  195   189     1     0     0
SMALL
resp


@<TRIPOS>ATOM
      1 C1         -5.1250   -4.0800    3.3000 c3        1 MOL     -0.601954
      2 C2         -3.8810   -3.6740    2.4670 c         1 MOL      0.736850
      3 O1         -3.3970   -2.6160    2.7070 o         1 MOL     -0.468192
      4 H1         -4.9170   -3.9280    4.3590 hc        1 MOL      0.129063
      5 H2         -5.9760   -3.4670    3.0050 hc        1 MOL      0.129063
      6 H3         -5.3540   -5.1310    3.1220 hc        1 MOL      0.129063
      7 N1         -3.6380   -4.5030    1.4130 n         1 MOL     -0.566822
      8 C3         -2.5990   -4.1620    0.4240 c3        1 MOL     -0.112741
      9 C4         -1.1990   -3.7790    1.0680 c         1 MOL      0.595955
     10 O2         -0.5670   -2.9060    0.5050 o         1 MOL     -0.535696
     11 C5         -3.0850   -3.0750   -0.5430 c3        1 MOL     -0.009293
     12 C6         -4.5480   -3.2510   -0.8750 c         1 MOL      0.481149
     13 O3         -4.9020   -4.0930   -1.7910 o         1 MOL     -0.655943
     14 O4         -5.4310   -2.4530   -0.4630 o         1 MOL     -0.655943
     15 H4         -4.3180   -5.2140    1.1780 hn        1 MOL      0.292279
     16 H5         -2.5180   -5.0220   -0.2350 h1        1 MOL      0.099234
     17 H6         -2.4530   -3.1700   -1.4280 hc        1 MOL      0.085598
     18 H7         -2.8940   -2.1290   -0.0380 hc        1 MOL      0.085598
     19 N2         -0.8680   -4.4540    2.1800 n         1 MOL     -0.503075
     20 C7          0.4350   -4.5020    2.8730 c3        1 MOL      0.021831
     21 C8          1.1210   -5.8260    2.5290 c         1 MOL      0.499309
     22 O5          0.6720   -6.8760    2.9090 o         1 MOL     -0.606964
     23 C9          0.2630   -4.4020    4.4100 c3        1 MOL      0.264385
     24 C10        -0.7660   -3.3060    4.7360 c3        1 MOL     -0.033572
     25 C11         1.6170   -4.1210    5.1210 c3        1 MOL     -0.286056
     26 C12        -1.3340   -3.3160    6.1820 c3        1 MOL     -0.387150
     27 H8         -1.5710   -5.0710    2.5490 hn        1 MOL      0.292048
     28 H9          1.1090   -3.6660    2.6680 h1        1 MOL      0.064059
     29 H10        -0.1770   -5.3580    4.7190 hc        1 MOL     -0.060605
     30 H11        -1.6990   -3.4860    4.1980 hc        1 MOL      0.094372
     31 H12        -0.3520   -2.3280    4.4830 hc        1 MOL      0.094372
     32 H13         2.2620   -4.9860    4.9790 hc        1 MOL      0.061334
     33 H14         2.0890   -3.1940    4.7960 hc        1 MOL      0.061334
     34 H15         1.3470   -3.9650    6.1640 hc        1 MOL      0.061334
     35 H16        -1.5650   -4.3420    6.4660 hc        1 MOL      0.086343
     36 H17        -0.6330   -2.8170    6.8540 hc        1 MOL      0.086343
     37 H18        -2.2460   -2.7450    6.2800 hc        1 MOL      0.086343
     38 N3          2.1160   -5.8100    1.7350 n         1 MOL     -0.252467
     39 C13         2.7420   -4.7670    0.9580 c3        1 MOL      0.005274
     40 C14         3.2740   -5.3630   -0.3760 c         1 MOL      0.536954
     41 O6          3.5850   -6.5520   -0.4490 o         1 MOL     -0.525866
     42 C15         3.9070   -4.2020    1.7920 c3        1 MOL     -0.405943
     43 C16         4.4290   -2.9410    1.0850 c         1 MOL      0.900303
     44 O7          5.5240   -3.0070    0.4500 o         1 MOL     -0.751886
     45 O8          3.7060   -1.8960    1.2200 o         1 MOL     -0.751886
     46 H19         2.3490   -6.7320    1.4180 hn        1 MOL      0.215248
     47 H20         2.0520   -3.9500    0.6970 h1        1 MOL      0.024655
     48 H21         4.7230   -4.9270    1.8220 hc        1 MOL      0.095141
     49 H22         3.4690   -3.8410    2.7180 hc        1 MOL      0.095141
     50 N4          3.4540   -4.4640   -1.3640 n         1 MOL     -0.447155
     51 C17         3.8190   -4.8400   -2.7720 c3        1 MOL      0.012380
     52 C18         5.1150   -4.2340   -3.3020 c         1 MOL      0.532378
     53 O9          5.5420   -4.4850   -4.4260 o         1 MOL     -0.581596
     54 H23         3.2710   -3.4950   -1.1820 hn        1 MOL      0.324596
     55 H24         2.9630   -4.5130   -3.3590 h1        1 MOL      0.073081
     56 H25         3.7450   -5.9130   -2.9350 h1        1 MOL      0.073081
     57 N5          5.6930   -3.2690   -2.5860 n         1 MOL     -0.503822
     58 C19         6.7110   -2.3340   -3.1870 c3        1 MOL      0.202927
     59 C20         7.7680   -1.7660   -2.1720 c         1 MOL      0.287403
     60 O10         8.8670   -1.2940   -2.6120 o         1 MOL     -0.557609
     61 C21         6.0880   -1.2250   -4.0240 c3        1 MOL     -0.398227
     62 C22         4.8340   -0.6180   -3.3870 c         1 MOL      0.752004
     63 O11         4.8850    0.0200   -2.3360 o         1 MOL     -0.679968
     64 O12         3.7220   -0.8030   -3.9980 o         1 MOL     -0.679968
     65 H26         5.2800   -3.0690   -1.6840 hn        1 MOL      0.331654
     66 H27         7.2700   -2.8950   -3.9300 h1        1 MOL      0.085412
     67 H28         5.7870   -1.6590   -4.9760 hc        1 MOL      0.095981
     68 H29         6.8770   -0.4690   -4.0860 hc        1 MOL      0.095981
     69 N6          7.4150   -1.4760   -0.8750 n         1 MOL     -0.139396
     70 C23         8.2490   -0.8040    0.1190 c3        1 MOL     -0.009078
     71 C24         8.1280    0.7300    0.2650 c         1 MOL      0.481556
     72 O13         8.7230    1.3020    1.1670 o         1 MOL     -0.577204
     73 H30         6.4600   -1.7140   -0.6650 hn        1 MOL      0.162128
     74 H31         9.2710   -1.0770   -0.1640 h1        1 MOL      0.061211
     75 H32         8.2130   -1.2820    1.0950 h1        1 MOL      0.061211
     76 N7          7.4570    1.3530   -0.7120 n         1 MOL     -0.189718
     77 C25         7.2810    2.7960   -0.7980 c3        1 MOL      0.037135
     78 C26         6.8520    3.5770    0.4350 c         1 MOL      0.566812
     79 O14         7.2470    4.6910    0.6770 o         1 MOL     -0.537317
     80 C27         8.5290    3.5060   -1.4810 c3        1 MOL     -0.009344
     81 C28         9.1230    2.6710   -2.5970 c3        1 MOL      0.030219
     82 C29        10.0940    3.4110   -3.5140 c         1 MOL      0.578317
     83 N8         10.2460    2.8210   -4.7030 n         1 MOL     -0.796928
     84 O15        10.6490    4.4200   -3.1930 o         1 MOL     -0.555439
     85 H33         6.9630    0.7890   -1.3940 hn        1 MOL      0.195536
     86 H34         6.4430    2.9430   -1.4650 h1        1 MOL      0.066003
     87 H35         9.3110    3.8070   -0.7890 hc        1 MOL      0.015997
     88 H36         8.1660    4.4390   -1.9090 hc        1 MOL      0.015997
     89 H37         8.2140    2.4320   -3.1520 hc        1 MOL     -0.007549
     90 H38         9.5050    1.6790   -2.3500 hc        1 MOL     -0.007549
     91 H39         9.7190    1.9870   -4.8910 hn        1 MOL      0.355146
     92 H40        10.9560    3.2850   -5.2640 hn        1 MOL      0.355146
     93 N9          6.0450    2.9750    1.3110 n         1 MOL     -0.502079
     94 C30         5.6600    3.5540    2.6330 c3        1 MOL     -0.074339
     95 C31         4.2380    3.2240    3.0820 c         1 MOL      0.428427
     96 O16         3.8090    3.5910    4.1510 o         1 MOL     -0.548962
     97 C32         6.6080    3.2290    3.7720 c3        1 MOL      0.331645
     98 C33         6.6210    1.7040    3.9280 c3        1 MOL     -0.343025
     99 C34         8.0650    3.6720    3.5740 c3        1 MOL     -0.343025
    100 H41         5.7140    2.0510    1.0780 hn        1 MOL      0.277068
    101 H42         5.6470    4.6370    2.5470 h1        1 MOL      0.109712
    102 H43         6.1130    3.6150    4.6600 hc        1 MOL     -0.039856
    103 H44         7.2030    1.4640    4.8110 hc        1 MOL      0.077019
    104 H45         5.6240    1.3100    4.1390 hc        1 MOL      0.077019
    105 H46         7.0460    1.2130    3.0550 hc        1 MOL      0.077019
    106 H47         8.5750    3.0380    2.8560 hc        1 MOL      0.077019
    107 H48         8.1920    4.7270    3.3420 hc        1 MOL      0.077019
    108 H49         8.5310    3.4840    4.5480 hc        1 MOL      0.077019
    109 N10         3.4930    2.4930    2.2880 n         1 MOL     -0.259290
    110 C35         2.0610    2.1720    2.3900 c3        1 MOL      0.183417
    111 C36         1.3210    2.4670    1.1040 c         1 MOL      0.440650
    112 O17         1.9100    2.3910    0.0430 o         1 MOL     -0.484687
    113 C37         1.9660    0.8140    3.0770 c3        1 MOL      0.017607
    114 C38         0.7450   -0.0250    2.6830 c         1 MOL      0.335865
    115 N11         0.9100   -0.8690    1.7080 n         1 MOL     -0.629947
    116 O18        -0.4080    0.2140    3.0870 o         1 MOL     -0.567835
    117 H50         3.8620    2.2150    1.3950 hn        1 MOL      0.197414
    118 H51         1.6710    2.8120    3.1770 h1        1 MOL      0.007188
    119 H52         2.1410    0.8460    4.1500 hc        1 MOL      0.036815
    120 H53         2.8420    0.2360    2.7500 hc        1 MOL      0.036815
    121 H54         1.7750   -0.9370    1.2100 hn        1 MOL      0.381182
    122 H55         0.1280   -1.4820    1.5010 hn        1 MOL      0.381182
    123 N12         0.0180    2.7540    1.2520 n         1 MOL     -0.565434
    124 C39        -0.8280    2.8520    0.0400 c3        1 MOL      0.188481
    125 C40        -2.1950    3.3400    0.4020 c         1 MOL      0.718542
    126 O19        -2.8180    2.8960    1.4190 o         1 MOL     -0.621659
    127 C41        -0.9480    1.4200   -0.4920 c3        1 MOL     -0.544871
    128 C42        -1.7030    1.3780   -1.8120 ca        1 MOL      0.168704
    129 C43        -1.1090    1.8630   -2.9860 ca        1 MOL     -0.168176
    130 C44        -3.0120    0.8750   -1.8270 ca        1 MOL     -0.168176
    131 C45        -1.8390    1.7690   -4.2010 ca        1 MOL     -0.268791
    132 C46        -3.6590    0.5490   -3.0290 ca        1 MOL     -0.268791
    133 C47        -3.0590    1.0380   -4.1910 ca        1 MOL      0.282635
    134 O20        -3.5810    0.5820   -5.3040 oh        1 MOL     -0.419254
    135 H56        -0.4710    2.7840    2.1360 hn        1 MOL      0.361347
    136 H57        -0.3120    3.5050   -0.6620 h1        1 MOL      0.103296
    137 H58        -1.4520    0.7120    0.1640 hc        1 MOL      0.196888
    138 H59         0.0380    0.9990   -0.6640 hc        1 MOL      0.196888
    139 H60        -0.0870    2.1960   -2.9890 ha        1 MOL      0.151330
    140 H61        -3.3850    0.4420   -0.9010 ha        1 MOL      0.151330
    141 H62        -1.4590    2.0850   -5.1570 ha        1 MOL      0.151109
    142 H63        -4.5150   -0.1070   -3.0090 ha        1 MOL      0.151109
    143 H64        -3.2570    1.1740   -5.9850 ho        1 MOL      0.319056
    144 N13        -2.6750    4.4120   -0.1730 n         1 MOL     -0.845873
    145 C48        -4.0610    4.9550    0.0720 c3        1 MOL      0.491889
    146 C49        -4.9540    4.8590   -1.1830 c         1 MOL      0.592593
    147 O21        -4.6130    5.5150   -2.2030 o         1 MOL     -0.597676
    148 C50        -3.8210    6.4440    0.5220 c3        1 MOL      0.072832
    149 C51        -5.1860    7.0940    0.7930 c3        1 MOL     -0.444025
    150 C52        -5.0540    8.6080    1.1150 c         1 MOL      0.736967
    151 O22        -4.4680    9.0150    2.1200 o         1 MOL     -0.748586
    152 O23        -5.4890    9.4860    0.3020 o         1 MOL     -0.748586
    153 H65        -2.1690    4.7610   -0.9630 hn        1 MOL      0.319264
    154 H66        -4.5950    4.3960    0.8410 h1        1 MOL     -0.014053
    155 H67        -3.2340    6.9820   -0.2180 hc        1 MOL      0.020384
    156 H68        -3.4120    6.4460    1.5340 hc        1 MOL      0.020384
    157 H69        -5.6340    6.5740    1.6380 hc        1 MOL      0.094708
    158 H70        -5.8960    6.9460   -0.0300 hc        1 MOL      0.094708
    159 N14        -6.0590    4.1490   -1.2730 n         1 MOL     -0.726205
    160 C53        -6.3730    3.0420   -0.2690 c3        1 MOL      0.474935
    161 C54        -6.7520    3.5290    1.1320 c         1 MOL      0.344849
    162 O24        -7.3260    4.6280    1.3050 o         1 MOL     -0.516773
    163 C55        -7.4670    2.1490   -0.9010 c3        1 MOL     -0.160287
    164 C56        -6.9100    1.2230   -1.9830 c3        1 MOL     -0.039572
    165 C57        -8.1230    0.3990   -2.5370 c         1 MOL      0.673981
    166 O25        -8.5590   -0.6320   -1.9370 o         1 MOL     -0.669391
    167 O26        -8.6640    0.8470   -3.5700 o         1 MOL     -0.669391
    168 H71        -6.5860    4.2080   -2.1290 hn        1 MOL      0.395173
    169 H72        -5.5010    2.4460   -0.0460 h1        1 MOL     -0.081364
    170 H73        -8.2770    2.8300   -1.1940 hc        1 MOL     -0.007153
    171 H74        -7.8480    1.5040   -0.1230 hc        1 MOL     -0.007153
    172 H75        -6.2430    0.5340   -1.4560 hc        1 MOL      0.012885
    173 H76        -6.4270    1.7990   -2.7740 hc        1 MOL      0.012885
    174 N15        -6.4260    2.7750    2.1920 n         1 MOL     -0.226831
    175 C58        -6.5450    3.1780    3.6370 c3        1 MOL     -0.462213
    176 H77        -5.6770    2.8170    4.1880 h1        1 MOL      0.175593
    177 H78        -6.5950    4.2650    3.7090 h1        1 MOL      0.175593
    178 H79        -7.4500    2.7440    4.0640 h1        1 MOL      0.175593
    179 H80        -6.0140    1.8850    1.9380 hn        1 MOL      0.259153
    180 Ca1        -8.0450   -2.8910   -0.9600 Ca        1 MOL      1.676226
    181 O27        -6.9320   -3.0230   -3.4880 oh        1 MOL     -0.850535
    182 H81        -6.6680   -2.9440   -4.4010 ho        1 MOL      0.403825
    183 H82        -6.2110   -3.4820   -3.0680 ho        1 MOL      0.403825
    184 O28        -7.0460   -5.5190   -2.0210 oh        1 MOL     -0.850535
    185 H83        -7.0510   -6.3760   -1.6040 ho        1 MOL      0.403825
    186 H84        -6.1110   -5.3430   -2.1740 ho        1 MOL      0.403825
    187 O29        -8.2090   -1.2960    1.0030 oh        1 MOL     -0.850535
    188 H85        -8.8700   -0.9210    1.5970 ho        1 MOL      0.403825
    189 H86        -7.4180   -0.7720    1.1700 ho        1 MOL      0.403825
    190 O30        -9.7600   -3.5290   -2.8680 oh        1 MOL     -0.850535
    191 H87        -9.9900   -3.1610   -3.7180 ho        1 MOL      0.403825
    192 H88       -10.5880   -3.8520   -2.5110 ho        1 MOL      0.403825
    193 O31       -10.8790   -1.2090   -0.9710 oh        1 MOL     -0.850535
    194 H89       -11.6210   -0.7540   -1.3620 ho        1 MOL      0.403825
    195 H90       -10.1080   -0.8770   -1.4350 ho        1 MOL      0.403825
@<TRIPOS>BOND
     1    1    2 1   
     2    1    4 1   
     3    1    5 1   
     4    1    6 1   
     5    2    3 2   
     6    2    7 1   
     7    7    8 1   
     8    7   15 1   
     9    8    9 1   
    10    8   11 1   
    11    8   16 1   
    12    9   10 2   
    13    9   19 1   
    14   11   12 1   
    15   11   17 1   
    16   11   18 1   
    17   12   13 1   
    18   12   14 1   
    19   19   20 1   
    20   19   27 1   
    21   20   21 1   
    22   20   23 1   
    23   20   28 1   
    24   21   22 2   
    25   21   38 1   
    26   23   24 1   
    27   23   25 1   
    28   23   29 1   
    29   24   26 1   
    30   24   30 1   
    31   24   31 1   
    32   25   32 1   
    33   25   33 1   
    34   25   34 1   
    35   26   35 1   
    36   26   36 1   
    37   26   37 1   
    38   38   39 1   
    39   38   46 1   
    40   39   40 1   
    41   39   42 1   
    42   39   47 1   
    43   40   41 2   
    44   40   50 1   
    45   42   43 1   
    46   42   48 1   
    47   42   49 1   
    48   43   44 1   
    49   43   45 1   
    50   50   51 1   
    51   50   54 1   
    52   51   52 1   
    53   51   55 1   
    54   51   56 1   
    55   52   53 2   
    56   52   57 1   
    57   57   58 1   
    58   57   65 1   
    59   58   59 1   
    60   58   61 1   
    61   58   66 1   
    62   59   60 2   
    63   59   69 1   
    64   61   62 1   
    65   61   67 1   
    66   61   68 1   
    67   62   63 1   
    68   62   64 1   
    69   69   70 1   
    70   69   73 1   
    71   70   71 1   
    72   70   74 1   
    73   70   75 1   
    74   71   72 2   
    75   71   76 1   
    76   76   77 1   
    77   76   85 1   
    78   77   78 1   
    79   77   80 1   
    80   77   86 1   
    81   78   79 2   
    82   78   93 1   
    83   80   81 1   
    84   80   87 1   
    85   80   88 1   
    86   81   82 1   
    87   81   89 1   
    88   81   90 1   
    89   82   83 1   
    90   82   84 2   
    91   83   91 1   
    92   83   92 1   
    93   93   94 1   
    94   93  100 1   
    95   94   95 1   
    96   94   97 1   
    97   94  101 1   
    98   95   96 2   
    99   95  109 1   
   100   97   98 1   
   101   97   99 1   
   102   97  102 1   
   103   98  103 1   
   104   98  104 1   
   105   98  105 1   
   106   99  106 1   
   107   99  107 1   
   108   99  108 1   
   109  109  110 1   
   110  109  117 1   
   111  110  111 1   
   112  110  113 1   
   113  110  118 1   
   114  111  112 2   
   115  111  123 1   
   116  113  114 1   
   117  113  119 1   
   118  113  120 1   
   119  114  115 1   
   120  114  116 2   
   121  115  121 1   
   122  115  122 1   
   123  123  124 1   
   124  123  135 1   
   125  124  125 1   
   126  124  127 1   
   127  124  136 1   
   128  125  126 2   
   129  125  144 1   
   130  127  128 1   
   131  127  137 1   
   132  127  138 1   
   133  128  129 ar  
   134  128  130 ar  
   135  129  131 ar  
   136  129  139 1   
   137  130  132 ar  
   138  130  140 1   
   139  131  133 ar  
   140  131  141 1   
   141  132  133 ar  
   142  132  142 1   
   143  133  134 1   
   144  134  143 1   
   145  144  145 1   
   146  144  153 1   
   147  145  146 1   
   148  145  148 1   
   149  145  154 1   
   150  146  147 2   
   151  146  159 1   
   152  148  149 1   
   153  148  155 1   
   154  148  156 1   
   155  149  150 1   
   156  149  157 1   
   157  149  158 1   
   158  150  151 1   
   159  150  152 1   
   160  159  160 1   
   161  159  168 1   
   162  160  161 1   
   163  160  163 1   
   164  160  169 1   
   165  161  162 2   
   166  161  174 1   
   167  163  164 1   
   168  163  170 1   
   169  163  171 1   
   170  164  165 1   
   171  164  172 1   
   172  164  173 1   
   173  165  166 1   
   174  165  167 1   
   175  174  175 1   
   176  174  179 1   
   177  175  176 1   
   178  175  177 1   
   179  175  178 1   
   180  181  182 1   
   181  181  183 1   
   182  184  185 1   
   183  184  186 1   
   184  187  188 1   
   185  187  189 1   
   186  190  191 1   
   187  190  192 1   
   188  193  194 1   
   189  193  195 1   
@<TRIPOS>SUBSTRUCTURE
     1 MOL         1 TEMP              0 ****  ****    0 ROOT
