@<TRIPOS>MOLECULE
MOL
  178   175     1     0     0
SMALL
resp


@<TRIPOS>ATOM
      1 C1         -6.2780    8.1130    1.3560 c3        1 MOL     -0.293624
      2 C2         -7.3030    7.2960    0.6470 c         1 MOL      0.683045
      3 O1         -7.4980    7.6720   -0.5160 o         1 MOL     -0.575713
      4 H1         -5.3050    7.6300    1.2670 hc        1 MOL      0.064392
      5 H2         -6.2320    9.1060    0.9090 hc        1 MOL      0.064392
      6 H3         -6.5460    8.1990    2.4080 hc        1 MOL      0.064392
      7 N1         -7.7940    6.1490    1.1430 n         1 MOL     -0.568830
      8 C3         -8.7840    5.3540    0.4220 c3        1 MOL      0.409447
      9 C4         -8.2500    4.1790   -0.3300 c         1 MOL      0.459033
     10 O2         -9.0390    3.5990   -1.1320 o         1 MOL     -0.517526
     11 C5         -9.9410    4.8920    1.4020 c3        1 MOL     -0.245852
     12 C6        -11.2950    4.3930    0.8630 c         1 MOL      0.744204
     13 O3        -12.0420    3.6950    1.6060 o         1 MOL     -0.732023
     14 O4        -11.7810    4.8080   -0.2690 o         1 MOL     -0.732023
     15 H4         -7.6010    5.8900    2.0950 hn        1 MOL      0.270897
     16 H5         -9.2610    6.0630   -0.2530 h1        1 MOL     -0.016059
     17 H6        -10.1510    5.7450    2.0460 hc        1 MOL      0.000415
     18 H7         -9.6150    4.0410    2.0110 hc        1 MOL      0.000415
     19 N2         -6.9280    3.8320   -0.1200 n         1 MOL     -0.648834
     20 C7         -6.1770    2.8430   -0.9810 c3        1 MOL      0.358686
     21 C8         -5.1180    2.1600   -0.1470 c         1 MOL      0.503210
     22 O5         -4.3880    2.8910    0.5430 o         1 MOL     -0.539397
     23 C9         -5.6160    3.5600   -2.1440 c3        1 MOL     -0.365775
     24 H8         -6.4600    4.2940    0.6370 hn        1 MOL      0.293995
     25 H9         -6.8570    2.1520   -1.4750 h1        1 MOL      0.055128
     26 H10        -4.6750    4.0220   -1.8160 hc        1 MOL      0.102618
     27 H11        -5.4860    2.8460   -2.9490 hc        1 MOL      0.102618
     28 H12        -6.3690    4.2900   -2.4250 hc        1 MOL      0.102618
     29 N3         -4.9600    0.8120   -0.2060 n         1 MOL     -0.469901
     30 C10        -5.7530   -0.1600   -1.0260 c3        1 MOL      0.035866
     31 C11        -5.8120   -1.5480   -0.3450 c         1 MOL      0.446704
     32 O6         -5.0450   -1.8300    0.6000 o         1 MOL     -0.490431
     33 C12        -5.1170   -0.4190   -2.4390 c3        1 MOL     -0.226032
     34 C13        -3.6060   -0.8290   -2.4970 c         1 MOL      0.765244
     35 O7         -3.1150   -1.1830   -3.6090 o         1 MOL     -0.722163
     36 O8         -2.9120   -1.0230   -1.4680 o         1 MOL     -0.722163
     37 H13        -4.2040    0.4620    0.3640 hn        1 MOL      0.272481
     38 H14        -6.7500    0.2010   -1.2520 h1        1 MOL      0.045087
     39 H15        -5.1630    0.5370   -2.9600 hc        1 MOL      0.051279
     40 H16        -5.6990   -1.2090   -2.8950 hc        1 MOL      0.051279
     41 N4         -6.7170   -2.3780   -0.7630 n         1 MOL     -0.368516
     42 C14        -6.9150   -3.7570   -0.3230 c3        1 MOL      0.057077
     43 C15        -6.6340   -4.8020   -1.4330 c         1 MOL      0.543663
     44 O9         -7.5500   -5.3150   -2.0380 o         1 MOL     -0.552253
     45 H17        -7.3480   -2.0190   -1.4670 hn        1 MOL      0.306584
     46 H18        -7.9350   -3.9330    0.0090 h1        1 MOL      0.041380
     47 H19        -6.1700   -3.9560    0.4450 h1        1 MOL      0.041380
     48 N5         -5.3780   -5.2590   -1.5640 n         1 MOL     -0.486874
     49 C16        -4.0990   -4.6650   -1.0320 c3        1 MOL      0.036651
     50 C17        -3.7260   -5.2960    0.3000 c         1 MOL      0.465734
     51 O10        -3.3670   -6.5080    0.3070 o         1 MOL     -0.525591
     52 C18        -3.0420   -4.9870   -2.0750 c3        1 MOL     -0.227080
     53 C19        -1.7080   -4.3040   -1.7910 c         1 MOL      0.734109
     54 N6         -0.7080   -4.3930   -2.6420 n         1 MOL     -0.808532
     55 O11        -1.5190   -3.6550   -0.7550 o         1 MOL     -0.708046
     56 H20        -5.2050   -6.0480   -2.1730 hn        1 MOL      0.304841
     57 H21        -4.1890   -3.5840   -0.9710 h1        1 MOL      0.157865
     58 H22        -3.3990   -4.7170   -3.0660 hc        1 MOL      0.090495
     59 H23        -2.8790   -6.0670   -1.9960 hc        1 MOL      0.090495
     60 H24        -0.7450   -5.0080   -3.4430 hn        1 MOL      0.356662
     61 H25         0.0980   -3.8060   -2.4430 hn        1 MOL      0.356662
     62 N7         -3.6500   -4.4850    1.3750 n         1 MOL     -0.247118
     63 C20        -3.1600   -4.7340    2.7130 c3        1 MOL     -0.046207
     64 C21        -1.7280   -5.1680    2.9190 c         1 MOL      0.407238
     65 O12        -1.3080   -5.7240    3.9430 o         1 MOL     -0.558691
     66 H26        -4.0480   -3.5600    1.2730 hn        1 MOL      0.211841
     67 H27        -3.8880   -5.3170    3.2760 h1        1 MOL      0.063371
     68 H28        -3.1950   -3.7570    3.2040 h1        1 MOL      0.063371
     69 N8         -0.8830   -4.8720    1.9170 n         1 MOL     -0.063478
     70 C22         0.5500   -5.0470    2.0010 c3        1 MOL     -0.051316
     71 C23         1.2930   -3.7240    1.7770 c         1 MOL      0.358630
     72 O13         0.7570   -2.7450    1.2110 o         1 MOL     -0.526509
     73 C24         1.0300   -6.1880    1.0760 c3        1 MOL      0.349645
     74 C25         0.4530   -7.5770    1.3630 c3        1 MOL     -0.451312
     75 O14         0.5740   -5.9160   -0.2550 oh        1 MOL     -0.578931
     76 H29        -1.3160   -4.3880    1.1510 hn        1 MOL      0.190191
     77 H30         0.7960   -5.3770    3.0080 h1        1 MOL      0.054608
     78 H31         2.1160   -6.2780    1.0170 h1        1 MOL      0.004339
     79 H32         1.2340   -5.3040   -0.6080 ho        1 MOL      0.404185
     80 H33        -0.5790   -7.5890    1.0280 hc        1 MOL      0.113446
     81 H34         1.0420   -8.3060    0.8030 hc        1 MOL      0.113446
     82 H35         0.5780   -7.8610    2.3980 hc        1 MOL      0.113446
     83 N9          2.4810   -3.5770    2.4390 n         1 MOL     -0.320044
     84 C26         3.4570   -2.4820    2.3420 c3        1 MOL      0.023142
     85 C27         4.3580   -2.7500    1.0960 c         1 MOL      0.368902
     86 O15         5.2570   -3.5310    1.1080 o         1 MOL     -0.551400
     87 C28         4.2280   -2.2460    3.6250 c3        1 MOL      0.162890
     88 C29         5.1830   -1.0410    3.4790 c3        1 MOL     -0.037809
     89 C30         3.3520   -2.1050    4.7810 c3        1 MOL     -0.295271
     90 C31         4.5270    0.3060    3.0540 c3        1 MOL     -0.466759
     91 H36         2.7890   -4.3790    2.9640 hn        1 MOL      0.241126
     92 H37         2.9100   -1.5430    2.2310 h1        1 MOL      0.175333
     93 H38         4.9200   -3.0820    3.7750 hc        1 MOL     -0.012500
     94 H39         5.9790   -1.2550    2.7720 hc        1 MOL      0.028298
     95 H40         5.8050   -0.9520    4.3650 hc        1 MOL      0.028298
     96 H41         3.8120   -1.5860    5.6330 hc        1 MOL      0.064767
     97 H42         2.5380   -1.4590    4.4580 hc        1 MOL      0.064767
     98 H43         2.9700   -3.0670    5.1190 hc        1 MOL      0.064767
     99 H44         5.3420    1.0350    2.9900 hc        1 MOL      0.126956
    100 H45         4.0730    0.2170    2.0750 hc        1 MOL      0.126956
    101 H46         3.8990    0.7390    3.8300 hc        1 MOL      0.126956
    102 N10         4.0570   -2.0230    0.0160 n         1 MOL     -0.052399
    103 C32         4.6810   -2.2880   -1.2860 c3        1 MOL      0.128452
    104 C33         5.7190   -1.3270   -1.7640 c         1 MOL      0.512281
    105 O16         6.4930   -1.6090   -2.6760 o         1 MOL     -0.565948
    106 C34         3.5340   -2.3800   -2.2650 c3        1 MOL     -0.309615
    107 C35         2.4300   -3.3130   -1.8480 c         1 MOL      0.707735
    108 O17         2.6510   -4.5480   -1.6970 o         1 MOL     -0.669695
    109 O18         1.3390   -2.8210   -1.4710 o         1 MOL     -0.669695
    110 H47         3.4010   -1.2670    0.0820 hn        1 MOL      0.071428
    111 H48         5.2210   -3.2390   -1.2440 h1        1 MOL      0.080473
    112 H49         3.9710   -2.8530   -3.1450 hc        1 MOL      0.059058
    113 H50         3.1320   -1.3910   -2.4420 hc        1 MOL      0.059058
    114 N11         5.9120   -0.2620   -1.0240 n         1 MOL     -0.449389
    115 C36         6.9330    0.7650   -1.1260 c3        1 MOL      0.218391
    116 C37         6.4370    2.1000   -0.5990 c         1 MOL      0.445597
    117 O19         6.0490    2.0940    0.5710 o         1 MOL     -0.536197
    118 C38         8.1810    0.2360   -0.4180 c3        1 MOL     -0.384645
    119 C39         9.2750    1.1740   -0.5950 ca        1 MOL      0.173067
    120 C40         9.6200    2.1140    0.4250 ca        1 MOL     -0.163641
    121 C41        10.0390    1.1460   -1.7780 ca        1 MOL     -0.163641
    122 C42        10.6520    3.0150    0.2630 ca        1 MOL     -0.130105
    123 C43        11.2490    1.9010   -1.9210 ca        1 MOL     -0.130105
    124 C44        11.4400    2.8220   -0.8670 ca        1 MOL     -0.120852
    125 H51         5.2380   -0.0900   -0.2960 hn        1 MOL      0.239566
    126 H52         7.1530    0.7710   -2.1940 h1        1 MOL      0.046837
    127 H53         8.4230   -0.7580   -0.8000 hc        1 MOL      0.146222
    128 H54         8.0010    0.1100    0.6490 hc        1 MOL      0.146222
    129 H55         9.0150    2.2370    1.3070 ha        1 MOL      0.124964
    130 H56         9.7270    0.5090   -2.5930 ha        1 MOL      0.124964
    131 H57        10.9290    3.7700    0.9780 ha        1 MOL      0.127060
    132 H58        11.8920    1.8650   -2.7910 ha        1 MOL      0.127060
    133 H59        12.2950    3.4780   -0.8850 ha        1 MOL      0.083293
    134 N12         6.4500    3.2280   -1.2970 n         1 MOL     -0.291110
    135 C45         6.2910    4.6180   -0.8100 c3        1 MOL      0.374396
    136 C46         4.8850    5.0490   -0.3930 c         1 MOL      0.211336
    137 O20         4.6430    6.2350   -0.2590 o         1 MOL     -0.487510
    138 C47         6.8360    5.5950   -1.8340 c3        1 MOL     -0.395471
    139 C48         7.8340    4.7920   -2.6440 c3        1 MOL      0.146866
    140 C49         7.2050    3.3590   -2.6140 c3        1 MOL      0.182897
    141 H60         6.9100    4.6010    0.0860 h1        1 MOL      0.013777
    142 H61         6.0040    5.8710   -2.4870 hc        1 MOL      0.124191
    143 H62         7.3740    6.4260   -1.3700 hc        1 MOL      0.124191
    144 H63         8.0150    5.0400   -3.6920 hc        1 MOL     -0.025199
    145 H64         8.8080    4.7510   -2.1540 hc        1 MOL     -0.025199
    146 H65         6.4600    3.2170   -3.3940 h1        1 MOL     -0.019668
    147 H66         8.0080    2.6270   -2.7250 h1        1 MOL     -0.019668
    148 N13         3.9320    4.1390   -0.1310 n         1 MOL     -0.010985
    149 C50         2.6520    4.3960    0.5190 c3        1 MOL     -0.350904
    150 C51         2.8270    4.8940    1.9600 c         1 MOL      0.568272
    151 O21         2.0030    5.7560    2.3620 o         1 MOL     -0.555427
    152 C52         1.7580    3.1730    0.4860 c3        1 MOL      0.007812
    153 C53         2.3440    1.8970    1.1260 c3        1 MOL      0.052169
    154 C54         1.5360    0.7490    0.5930 c         1 MOL      0.506097
    155 O22         0.4300    0.5360    1.1300 o         1 MOL     -0.689368
    156 O23         1.9890    0.0380   -0.3470 o         1 MOL     -0.689368
    157 H67         4.1980    3.1830   -0.3250 hn        1 MOL      0.048884
    158 H68         2.1400    5.1140   -0.1260 h1        1 MOL      0.186422
    159 H69         1.4860    3.1000   -0.5680 hc        1 MOL      0.045621
    160 H70         0.8780    3.4500    1.0680 hc        1 MOL      0.045621
    161 H71         2.3770    1.9470    2.2160 hc        1 MOL      0.026886
    162 H72         3.3210    1.8530    0.6530 hc        1 MOL      0.026886
    163 N14         3.7950    4.4790    2.7430 n         1 MOL     -0.160224
    164 C55         4.0360    4.9150    4.1580 c3        1 MOL     -0.311256
    165 H73         3.0980    4.8840    4.7120 h1        1 MOL      0.125543
    166 H74         4.7560    4.2440    4.6270 h1        1 MOL      0.125543
    167 H75         4.4280    5.9310    4.1640 h1        1 MOL      0.125543
    168 H76         4.4620    3.8180    2.3670 hn        1 MOL      0.162351
    169 Ca1        -0.4050   -1.1580   -0.6520 Ca        1 MOL      1.737193
    170 O24        -0.9400    1.5010   -1.2590 oh        1 MOL     -0.786994
    171 H77        -1.2470    2.1450   -0.6160 ho        1 MOL      0.386110
    172 H78        -0.4950    2.0200   -1.9320 ho        1 MOL      0.386110
    173 O25        -0.1460   -0.9980   -3.3890 oh        1 MOL     -0.786994
    174 H79         0.5450   -1.5570   -3.7440 ho        1 MOL      0.386110
    175 H80        -0.9110   -1.2050   -3.9120 ho        1 MOL      0.386110
    176 O26        -2.3770   -1.5330    1.2270 oh        1 MOL     -0.786994
    177 H81        -2.3840   -0.8000    1.8380 ho        1 MOL      0.386110
    178 H82        -3.2670   -1.5680    0.8820 ho        1 MOL      0.386110
@<TRIPOS>BOND
     1    1    2 1   
     2    1    4 1   
     3    1    5 1   
     4    1    6 1   
     5    2    3 2   
     6    2    7 1   
     7    7    8 1   
     8    7   15 1   
     9    8    9 1   
    10    8   11 1   
    11    8   16 1   
    12    9   10 2   
    13    9   19 1   
    14   11   12 1   
    15   11   17 1   
    16   11   18 1   
    17   12   13 1   
    18   12   14 1   
    19   19   20 1   
    20   19   24 1   
    21   20   21 1   
    22   20   23 1   
    23   20   25 1   
    24   21   22 2   
    25   21   29 1   
    26   23   26 1   
    27   23   27 1   
    28   23   28 1   
    29   29   30 1   
    30   29   37 1   
    31   30   31 1   
    32   30   33 1   
    33   30   38 1   
    34   31   32 2   
    35   31   41 1   
    36   33   34 1   
    37   33   39 1   
    38   33   40 1   
    39   34   35 1   
    40   34   36 1   
    41   41   42 1   
    42   41   45 1   
    43   42   43 1   
    44   42   46 1   
    45   42   47 1   
    46   43   44 2   
    47   43   48 1   
    48   48   49 1   
    49   48   56 1   
    50   49   50 1   
    51   49   52 1   
    52   49   57 1   
    53   50   51 2   
    54   50   62 1   
    55   52   53 1   
    56   52   58 1   
    57   52   59 1   
    58   53   54 1   
    59   53   55 2   
    60   54   60 1   
    61   54   61 1   
    62   62   63 1   
    63   62   66 1   
    64   63   64 1   
    65   63   67 1   
    66   63   68 1   
    67   64   65 2   
    68   64   69 1   
    69   69   70 1   
    70   69   76 1   
    71   70   71 1   
    72   70   73 1   
    73   70   77 1   
    74   71   72 2   
    75   71   83 1   
    76   73   74 1   
    77   73   75 1   
    78   73   78 1   
    79   74   80 1   
    80   74   81 1   
    81   74   82 1   
    82   75   79 1   
    83   83   84 1   
    84   83   91 1   
    85   84   85 1   
    86   84   87 1   
    87   84   92 1   
    88   85   86 2   
    89   85  102 1   
    90   87   88 1   
    91   87   89 1   
    92   87   93 1   
    93   88   90 1   
    94   88   94 1   
    95   88   95 1   
    96   89   96 1   
    97   89   97 1   
    98   89   98 1   
    99   90   99 1   
   100   90  100 1   
   101   90  101 1   
   102  102  103 1   
   103  102  110 1   
   104  103  104 1   
   105  103  106 1   
   106  103  111 1   
   107  104  105 2   
   108  104  114 1   
   109  106  107 1   
   110  106  112 1   
   111  106  113 1   
   112  107  108 1   
   113  107  109 1   
   114  114  115 1   
   115  114  125 1   
   116  115  116 1   
   117  115  118 1   
   118  115  126 1   
   119  116  117 2   
   120  116  134 1   
   121  118  119 1   
   122  118  127 1   
   123  118  128 1   
   124  119  120 ar  
   125  119  121 ar  
   126  120  122 ar  
   127  120  129 1   
   128  121  123 ar  
   129  121  130 1   
   130  122  124 ar  
   131  122  131 1   
   132  123  124 ar  
   133  123  132 1   
   134  124  133 1   
   135  134  135 1   
   136  134  140 1   
   137  135  136 1   
   138  135  138 1   
   139  135  141 1   
   140  136  137 2   
   141  136  148 1   
   142  138  139 1   
   143  138  142 1   
   144  138  143 1   
   145  139  140 1   
   146  139  144 1   
   147  139  145 1   
   148  140  146 1   
   149  140  147 1   
   150  148  149 1   
   151  148  157 1   
   152  149  150 1   
   153  149  152 1   
   154  149  158 1   
   155  150  151 2   
   156  150  163 1   
   157  152  153 1   
   158  152  159 1   
   159  152  160 1   
   160  153  154 1   
   161  153  161 1   
   162  153  162 1   
   163  154  155 1   
   164  154  156 1   
   165  163  164 1   
   166  163  168 1   
   167  164  165 1   
   168  164  166 1   
   169  164  167 1   
   170  170  171 1   
   171  170  172 1   
   172  173  174 1   
   173  173  175 1   
   174  176  177 1   
   175  176  178 1   
@<TRIPOS>SUBSTRUCTURE
     1 MOL         1 TEMP              0 ****  ****    0 ROOT
