@<TRIPOS>MOLECULE
MOL
  186   183     1     0     0
SMALL
resp


@<TRIPOS>ATOM
      1 C1         11.6800    5.7730   -3.3900 c3        1 MOL     -0.381569
      2 C2         11.7980    4.6300   -2.3300 c         1 MOL      0.600110
      3 O1         12.6920    3.7720   -2.4190 o         1 MOL     -0.568967
      4 H1         12.4810    5.6720   -4.1220 hc        1 MOL      0.101336
      5 H2         10.7170    5.7050   -3.8930 hc        1 MOL      0.101336
      6 H3         11.7630    6.7400   -2.8930 hc        1 MOL      0.101336
      7 N1         10.9850    4.6940   -1.2680 n         1 MOL     -0.102761
      8 C3         10.8800    3.6640   -0.1780 c3        1 MOL     -0.587543
      9 C4          9.7770    2.6110   -0.3560 c         1 MOL      0.575737
     10 O2          8.7330    2.8500   -0.9610 o         1 MOL     -0.606771
     11 C5         10.7950    4.2840    1.2740 c3        1 MOL      0.175982
     12 C6          9.7190    5.3140    1.3740 c         1 MOL      0.754941
     13 O3          8.8490    5.4240    0.4520 o         1 MOL     -0.723502
     14 O4          9.7010    6.1840    2.3260 o         1 MOL     -0.723502
     15 H4         10.3530    5.4820   -1.1930 hn        1 MOL      0.090313
     16 H5         11.8010    3.1140   -0.3080 h1        1 MOL      0.183645
     17 H6         11.7220    4.7370    1.6190 hc        1 MOL     -0.000249
     18 H7         10.4940    3.4450    1.9040 hc        1 MOL     -0.000249
     19 N2         10.0270    1.4100    0.1370 n         1 MOL     -0.123601
     20 C7          9.4330    0.0750   -0.1900 c3        1 MOL     -0.324969
     21 C8          7.9530   -0.1360    0.2030 c         1 MOL      0.754053
     22 O5          7.3780   -1.1760   -0.1070 o         1 MOL     -0.559247
     23 C9         10.3200   -1.0870    0.2290 c3        1 MOL     -0.217325
     24 C10        10.4600   -1.3870    1.6990 c3        1 MOL      0.132809
     25 C11         9.6780   -2.6650    2.0880 c3        1 MOL     -0.217829
     26 C12         9.7380   -2.8020    3.6130 c3        1 MOL      0.007546
     27 N3          9.3310   -4.2060    3.9550 n4        1 MOL     -0.408580
     28 H8         10.9520    1.3250    0.5170 hn        1 MOL      0.234143
     29 H9          9.3960   -0.0710   -1.2600 h1        1 MOL      0.181516
     30 H10        11.3340   -0.9750   -0.1490 hc        1 MOL      0.093659
     31 H11         9.9710   -1.9950   -0.2760 hc        1 MOL      0.093659
     32 H12        10.1510   -0.5130    2.2760 hc        1 MOL     -0.026812
     33 H13        11.5040   -1.5570    1.9420 hc        1 MOL     -0.026812
     34 H14        10.0200   -3.5560    1.5670 hc        1 MOL      0.125894
     35 H15         8.6530   -2.5010    1.7740 hc        1 MOL      0.125894
     36 H16         9.1440   -2.0150    4.0840 hx        1 MOL      0.114731
     37 H17        10.7650   -2.5970    3.8970 hx        1 MOL      0.114731
     38 H18         9.5910   -4.3930    4.9020 hn        1 MOL      0.316207
     39 H19         8.3290   -4.3180    3.8240 hn        1 MOL      0.316207
     40 H20         9.8310   -4.8710    3.3880 hn        1 MOL      0.316207
     41 N4          7.2860    0.9060    0.7750 n         1 MOL     -0.304838
     42 C13         5.8180    0.8490    0.8200 c3        1 MOL     -0.225448
     43 C14         5.1970    1.2930   -0.5550 c         1 MOL      0.578929
     44 O6          5.7120    2.2800   -1.1470 o         1 MOL     -0.712985
     45 C15         5.2030    1.6080    1.9650 c3        1 MOL     -0.459956
     46 C16         5.7680    3.0590    2.1440 c         1 MOL      0.677175
     47 O7          5.2500    3.6500    3.0890 o         1 MOL     -0.671217
     48 O8          6.5910    3.5840    1.4220 o         1 MOL     -0.671217
     49 H21         7.7090    1.8200    0.8330 hn        1 MOL      0.228033
     50 H22         5.5470   -0.1930    1.0150 h1        1 MOL      0.139443
     51 H23         5.6080    1.2120    2.8930 hc        1 MOL      0.214199
     52 H24         4.1310    1.6190    1.8060 hc        1 MOL      0.214199
     53 N5          4.1230    0.6430   -1.1150 n         1 MOL     -0.293179
     54 C17         3.4460   -0.4420   -0.4660 c3        1 MOL     -0.113039
     55 C18         4.2120   -1.8080   -0.6360 c         1 MOL      0.610631
     56 O9          4.6260   -2.1820   -1.7900 o         1 MOL     -0.565380
     57 H25         3.6220    1.0360   -1.9000 hn        1 MOL      0.280094
     58 H26         2.5110   -0.5320   -1.0170 h1        1 MOL      0.071658
     59 H27         3.3820   -0.3720    0.6180 h1        1 MOL      0.071658
     60 N6          4.0680   -2.6720    0.4060 n         1 MOL     -0.674082
     61 C19         4.5590   -4.1200    0.4140 c3        1 MOL      0.585876
     62 C20         3.5130   -5.1590    0.7410 c         1 MOL      0.331022
     63 O10         2.7820   -5.1050    1.7410 o         1 MOL     -0.460484
     64 C21         5.8260   -4.2510    1.1420 c3        1 MOL     -0.323627
     65 C22         5.7120   -4.0960    2.6920 c         1 MOL      0.792373
     66 O11         6.5360   -4.8130    3.3500 o         1 MOL     -0.719748
     67 O12         5.0070   -3.2370    3.3310 o         1 MOL     -0.719748
     68 H28         3.5970   -2.3670    1.2490 hn        1 MOL      0.356329
     69 H29         4.8110   -4.3360   -0.6260 h1        1 MOL     -0.056060
     70 H30         6.5310   -3.4770    0.8450 hc        1 MOL      0.007853
     71 H31         6.2480   -5.2310    0.9020 hc        1 MOL      0.007853
     72 N7          3.3500   -6.1830   -0.0660 n         1 MOL     -0.202717
     73 C23         2.3270   -7.1830    0.1840 c3        1 MOL     -0.355060
     74 C24         0.9060   -6.9770   -0.3740 c         1 MOL      0.601914
     75 O13         0.1560   -7.8670   -0.7070 o         1 MOL     -0.530600
     76 H32         4.0020   -6.2780   -0.8380 hn        1 MOL      0.246808
     77 H33         2.3080   -7.4320    1.2480 h1        1 MOL      0.141408
     78 H34         2.6610   -8.0610   -0.3700 h1        1 MOL      0.141408
     79 N8          0.7200   -5.6610   -0.6000 n         1 MOL     -0.178774
     80 C25        -0.4380   -4.9960   -1.2750 c3        1 MOL     -0.252795
     81 C26        -0.5290   -3.5500   -0.8120 c         1 MOL      0.659050
     82 O14         0.4800   -2.9530   -0.3680 o         1 MOL     -0.524182
     83 C27        -0.4000   -5.0210   -2.8220 c3        1 MOL      0.261430
     84 C28         0.9030   -4.5740   -3.5370 c3        1 MOL     -0.111759
     85 O15        -0.5880   -6.3650   -3.2900 oh        1 MOL     -0.548861
     86 H35         1.4820   -5.0770   -0.2920 hn        1 MOL      0.111039
     87 H36        -1.3070   -5.5680   -0.9650 h1        1 MOL      0.109258
     88 H37        -1.1670   -4.3800   -3.2630 h1        1 MOL      0.007673
     89 H38        -1.2310   -6.3100   -4.0030 ho        1 MOL      0.359593
     90 H39         0.9760   -4.9620   -4.5520 hc        1 MOL      0.036872
     91 H40         0.9540   -3.4860   -3.6200 hc        1 MOL      0.036872
     92 H41         1.8380   -4.7770   -3.0060 hc        1 MOL      0.036872
     93 N9         -1.7100   -2.9480   -0.9590 n         1 MOL     -0.540075
     94 C29        -1.9550   -1.5400   -0.6490 c3        1 MOL     -0.025745
     95 C30        -3.3140   -1.3210   -0.0870 c         1 MOL      0.721255
     96 O16        -3.5190   -0.5300    0.7920 o         1 MOL     -0.558371
     97 C31        -1.9450   -0.7270   -2.0190 c3        1 MOL      0.030295
     98 C32        -0.8420   -1.1690   -2.9640 c3        1 MOL      0.023546
     99 C33        -1.8030    0.8060   -1.8060 c3        1 MOL     -0.339107
    100 C34        -0.7460   -0.5290   -4.3700 c3        1 MOL     -0.215153
    101 H42        -2.4210   -3.5250   -1.3860 hn        1 MOL      0.299464
    102 H43        -1.1220   -1.1050   -0.0910 h1        1 MOL      0.099627
    103 H44        -2.9050   -0.7920   -2.5240 hc        1 MOL      0.025557
    104 H45        -0.9860   -2.2330   -3.1650 hc        1 MOL      0.055227
    105 H46         0.1720   -1.0870   -2.5470 hc        1 MOL      0.055227
    106 H47        -1.9890    1.3170   -2.7480 hc        1 MOL      0.100763
    107 H48        -2.5510    1.2180   -1.1290 hc        1 MOL      0.100763
    108 H49        -0.7590    0.9770   -1.5620 hc        1 MOL      0.100763
    109 H50        -0.5650    0.5400   -4.2480 hc        1 MOL      0.048473
    110 H51        -0.0330   -1.1450   -4.9180 hc        1 MOL      0.048473
    111 H52        -1.7390   -0.5800   -4.8210 hc        1 MOL      0.048473
    112 N10        -4.2920   -2.1130   -0.4880 n         1 MOL     -0.552817
    113 C35        -5.6230   -2.1980    0.0830 c3        1 MOL      0.009725
    114 C36        -6.7590   -2.2900   -0.9790 c         1 MOL      0.625631
    115 O17        -6.6070   -2.8100   -2.0940 o         1 MOL     -0.526735
    116 C37        -5.6840   -3.2970    1.1430 c3        1 MOL      0.366141
    117 C38        -5.4560   -4.6840    0.5180 c3        1 MOL     -0.408618
    118 O18        -4.7180   -3.1410    2.2150 oh        1 MOL     -0.589984
    119 H53        -4.0860   -2.7460   -1.2550 hn        1 MOL      0.230039
    120 H54        -5.8160   -1.3130    0.6910 h1        1 MOL      0.100995
    121 H55        -6.6730   -3.3430    1.5950 h1        1 MOL      0.018033
    122 H56        -3.9600   -3.6810    1.9730 ho        1 MOL      0.392833
    123 H57        -4.5580   -4.7130   -0.0920 hc        1 MOL      0.104023
    124 H58        -5.2700   -5.4050    1.3230 hc        1 MOL      0.104023
    125 H59        -6.3570   -5.0580    0.0220 hc        1 MOL      0.104023
    126 N11        -7.9100   -1.8660   -0.5490 n         1 MOL     -0.653237
    127 C39        -9.1250   -1.9580   -1.3020 c3        1 MOL      0.095057
    128 C40        -9.7350   -0.6170   -1.6010 c         1 MOL      0.715281
    129 O19       -10.1110   -0.3160   -2.7230 o         1 MOL     -0.565827
    130 C41       -10.0150   -2.9720   -0.6560 c3        1 MOL      0.413405
    131 C42       -11.2790   -3.3900   -1.4990 c3        1 MOL     -0.427510
    132 O20       -10.4980   -2.4730    0.6020 oh        1 MOL     -0.673690
    133 H60        -8.0100   -1.5160    0.3980 hn        1 MOL      0.306853
    134 H61        -8.9110   -2.3770   -2.2860 h1        1 MOL      0.058492
    135 H62        -9.4470   -3.8760   -0.4170 h1        1 MOL      0.010609
    136 H63       -11.2050   -3.0570    0.8930 ho        1 MOL      0.359670
    137 H64       -12.0440   -3.8280   -0.8530 hc        1 MOL      0.111184
    138 H65       -11.7070   -2.5850   -2.1080 hc        1 MOL      0.111184
    139 H66       -10.8680   -4.1420   -2.1690 hc        1 MOL      0.111184
    140 N12        -9.9450    0.1530   -0.5280 n         1 MOL     -0.631327
    141 C43       -10.7540    1.3770   -0.5240 c3        1 MOL      0.182113
    142 C44       -10.1760    2.4030    0.4360 c         1 MOL      0.428881
    143 O21       -10.0290    2.1550    1.6280 o         1 MOL     -0.518601
    144 C45       -12.2450    1.0280   -0.3400 c3        1 MOL     -0.547343
    145 C46       -12.5120    0.7170    1.1280 c3        1 MOL      0.083485
    146 C47       -13.8770    0.2030    1.3870 c3        1 MOL      0.029176
    147 C48       -14.2850    0.0450    2.8610 c3        1 MOL     -0.234635
    148 N13       -13.4090   -0.7670    3.7470 n4        1 MOL     -0.054808
    149 H67        -9.5460   -0.0640    0.3780 hn        1 MOL      0.341503
    150 H68       -10.6750    1.8390   -1.5060 h1        1 MOL      0.070489
    151 H69       -12.4720    0.1760   -0.9900 hc        1 MOL      0.189383
    152 H70       -12.8310    1.9150   -0.5780 hc        1 MOL      0.189383
    153 H71       -12.4770    1.6860    1.6340 hc        1 MOL      0.059672
    154 H72       -11.7330    0.0480    1.5030 hc        1 MOL      0.059672
    155 H73       -14.1040   -0.7440    0.9090 hc        1 MOL      0.026550
    156 H74       -14.6080    0.8690    0.9360 hc        1 MOL      0.026550
    157 H75       -15.2380   -0.4670    2.7890 hx        1 MOL      0.140310
    158 H76       -14.4360    1.0440    3.2560 hx        1 MOL      0.140310
    159 H77       -13.8530   -1.1260    4.5870 hn        1 MOL      0.193709
    160 H78       -13.1260   -1.6160    3.2750 hn        1 MOL      0.193709
    161 H79       -12.5620   -0.3120    4.0490 hn        1 MOL      0.193709
    162 N14        -9.9360    3.5830   -0.0780 n         1 MOL     -0.302799
    163 C49        -9.5100    4.6600    0.7520 c3        1 MOL      0.123214
    164 C50        -8.0990    4.4970    1.3430 c         1 MOL      0.400573
    165 O22        -7.9070    4.6930    2.5110 o         1 MOL     -0.514023
    166 C51        -9.6990    6.0190    0.0140 c3        1 MOL      0.003786
    167 C52        -9.5750    7.2120    1.0010 c3        1 MOL     -0.305214
    168 C53        -9.6680    8.5490    0.2680 c         1 MOL      0.735522
    169 O23        -8.7480    8.9820   -0.4250 o         1 MOL     -0.643275
    170 O24       -10.7160    9.2360    0.3540 o         1 MOL     -0.643275
    171 H80       -10.3560    3.8560   -0.9470 hn        1 MOL      0.216843
    172 H81       -10.2100    4.7180    1.5780 h1        1 MOL      0.048150
    173 H82       -10.7040    6.0140   -0.4190 hc        1 MOL      0.021246
    174 H83        -8.9780    6.1810   -0.7810 hc        1 MOL      0.021246
    175 H84        -8.5810    7.0320    1.4140 hc        1 MOL      0.078857
    176 H85       -10.1830    7.1180    1.8960 hc        1 MOL      0.078857
    177 N15        -7.0910    4.1510    0.5610 n         1 MOL     -0.315019
    178 C54        -6.9030    4.0370   -0.9520 c3        1 MOL     -0.141433
    179 H86        -5.9880    3.4850   -1.1640 h1        1 MOL      0.086175
    180 H87        -7.7530    3.5100   -1.3860 h1        1 MOL      0.086175
    181 H88        -6.8340    5.0350   -1.3860 h1        1 MOL      0.086175
    182 H89        -6.2420    3.9470    1.0640 hn        1 MOL      0.276344
    183 Ca1         6.6540    4.6850   -0.9080 Ca        1 MOL      1.742127
    184 O25         7.6780    3.7840   -3.3130 oh        1 MOL     -0.847024
    185 H90         7.9680    4.1450   -4.1520 ho        1 MOL      0.430997
    186 H91         8.0510    2.8980   -3.2970 ho        1 MOL      0.430997
@<TRIPOS>BOND
     1    1    2 1   
     2    1    4 1   
     3    1    5 1   
     4    1    6 1   
     5    2    3 2   
     6    2    7 1   
     7    7    8 1   
     8    7   15 1   
     9    8    9 1   
    10    8   11 1   
    11    8   16 1   
    12    9   10 2   
    13    9   19 1   
    14   11   12 1   
    15   11   17 1   
    16   11   18 1   
    17   12   13 1   
    18   12   14 1   
    19   19   20 1   
    20   19   28 1   
    21   20   21 1   
    22   20   23 1   
    23   20   29 1   
    24   21   22 2   
    25   21   41 1   
    26   23   24 1   
    27   23   30 1   
    28   23   31 1   
    29   24   25 1   
    30   24   32 1   
    31   24   33 1   
    32   25   26 1   
    33   25   34 1   
    34   25   35 1   
    35   26   27 1   
    36   26   36 1   
    37   26   37 1   
    38   27   38 1   
    39   27   39 1   
    40   27   40 1   
    41   41   42 1   
    42   41   49 1   
    43   42   43 1   
    44   42   45 1   
    45   42   50 1   
    46   43   44 2   
    47   43   53 1   
    48   45   46 1   
    49   45   51 1   
    50   45   52 1   
    51   46   47 1   
    52   46   48 1   
    53   53   54 1   
    54   53   57 1   
    55   54   55 1   
    56   54   58 1   
    57   54   59 1   
    58   55   56 2   
    59   55   60 1   
    60   60   61 1   
    61   60   68 1   
    62   61   62 1   
    63   61   64 1   
    64   61   69 1   
    65   62   63 2   
    66   62   72 1   
    67   64   65 1   
    68   64   70 1   
    69   64   71 1   
    70   65   66 1   
    71   65   67 1   
    72   72   73 1   
    73   72   76 1   
    74   73   74 1   
    75   73   77 1   
    76   73   78 1   
    77   74   75 2   
    78   74   79 1   
    79   79   80 1   
    80   79   86 1   
    81   80   81 1   
    82   80   83 1   
    83   80   87 1   
    84   81   82 2   
    85   81   93 1   
    86   83   84 1   
    87   83   85 1   
    88   83   88 1   
    89   84   90 1   
    90   84   91 1   
    91   84   92 1   
    92   85   89 1   
    93   93   94 1   
    94   93  101 1   
    95   94   95 1   
    96   94   97 1   
    97   94  102 1   
    98   95   96 2   
    99   95  112 1   
   100   97   98 1   
   101   97   99 1   
   102   97  103 1   
   103   98  100 1   
   104   98  104 1   
   105   98  105 1   
   106   99  106 1   
   107   99  107 1   
   108   99  108 1   
   109  100  109 1   
   110  100  110 1   
   111  100  111 1   
   112  112  113 1   
   113  112  119 1   
   114  113  114 1   
   115  113  116 1   
   116  113  120 1   
   117  114  115 2   
   118  114  126 1   
   119  116  117 1   
   120  116  118 1   
   121  116  121 1   
   122  117  123 1   
   123  117  124 1   
   124  117  125 1   
   125  118  122 1   
   126  126  127 1   
   127  126  133 1   
   128  127  128 1   
   129  127  130 1   
   130  127  134 1   
   131  128  129 2   
   132  128  140 1   
   133  130  131 1   
   134  130  132 1   
   135  130  135 1   
   136  131  137 1   
   137  131  138 1   
   138  131  139 1   
   139  132  136 1   
   140  140  141 1   
   141  140  149 1   
   142  141  142 1   
   143  141  144 1   
   144  141  150 1   
   145  142  143 2   
   146  142  162 1   
   147  144  145 1   
   148  144  151 1   
   149  144  152 1   
   150  145  146 1   
   151  145  153 1   
   152  145  154 1   
   153  146  147 1   
   154  146  155 1   
   155  146  156 1   
   156  147  148 1   
   157  147  157 1   
   158  147  158 1   
   159  148  159 1   
   160  148  160 1   
   161  148  161 1   
   162  162  163 1   
   163  162  171 1   
   164  163  164 1   
   165  163  166 1   
   166  163  172 1   
   167  164  165 2   
   168  164  177 1   
   169  166  167 1   
   170  166  173 1   
   171  166  174 1   
   172  167  168 1   
   173  167  175 1   
   174  167  176 1   
   175  168  169 1   
   176  168  170 1   
   177  177  178 1   
   178  177  182 1   
   179  178  179 1   
   180  178  180 1   
   181  178  181 1   
   182  184  185 1   
   183  184  186 1   
@<TRIPOS>SUBSTRUCTURE
     1 MOL         1 TEMP              0 ****  ****    0 ROOT
