@<TRIPOS>MOLECULE
MOL
  192   187     1     0     0
SMALL
resp


@<TRIPOS>ATOM
      1 C1          9.1830    1.6110    0.9080 c3        1 MOL     -0.566962
      2 C2          8.1120    0.6620    0.4350 c         1 MOL      0.801902
      3 O1          7.0120    0.6340    1.0310 o         1 MOL     -0.698566
      4 H1          8.7520    2.6010    1.0550 hc        1 MOL      0.146286
      5 H2          9.5960    1.2520    1.8510 hc        1 MOL      0.146286
      6 H3          9.9750    1.6680    0.1620 hc        1 MOL      0.146286
      7 N1          8.2500   -0.0790   -0.6580 n         1 MOL     -0.486157
      8 C3          7.1610   -0.6010   -1.4890 c3        1 MOL      0.021928
      9 C4          6.7290   -2.0090   -1.0940 c         1 MOL      0.351422
     10 O2          6.4530   -2.8100   -1.9830 o         1 MOL     -0.436957
     11 C5          7.4710   -0.3580   -2.9580 c3        1 MOL      0.030623
     12 C6          8.7410   -1.1400   -3.4540 c         1 MOL      0.598923
     13 O3          9.8590   -1.0930   -2.8490 o         1 MOL     -0.623095
     14 O4          8.5560   -1.7980   -4.5020 o         1 MOL     -0.623095
     15 H4          9.1940   -0.1660   -1.0070 hn        1 MOL      0.153170
     16 H5          6.3120    0.0090   -1.1820 h1        1 MOL      0.069341
     17 H6          7.6160    0.6980   -3.2070 hc        1 MOL      0.025664
     18 H7          6.6050   -0.5720   -3.5790 hc        1 MOL      0.025664
     19 N2          6.6430   -2.3490    0.1990 n         1 MOL     -0.058417
     20 C7          6.1590   -3.6230    0.7210 c3        1 MOL      0.231225
     21 C8          4.6740   -3.8370    0.4160 c         1 MOL      0.382643
     22 O5          4.3600   -4.9490   -0.0030 o         1 MOL     -0.555043
     23 C9          6.5470   -3.9200    2.1850 c3        1 MOL      0.150092
     24 C10         8.1180   -4.2450    2.5070 c3        1 MOL     -0.033649
     25 C11         9.1840   -3.2880    1.9430 c3        1 MOL      0.104988
     26 C12        10.6340   -3.5780    2.3370 c3        1 MOL     -0.174029
     27 N3         10.8880   -3.5260    3.7910 n4        1 MOL     -0.367404
     28 H8          6.8090   -1.5630    0.8040 hn        1 MOL      0.098543
     29 H9          6.6340   -4.3590    0.0630 h1        1 MOL     -0.002149
     30 H10         6.0160   -4.8360    2.4310 hc        1 MOL     -0.052339
     31 H11         6.2420   -3.1040    2.8420 hc        1 MOL     -0.052339
     32 H12         8.3900   -5.2300    2.1330 hc        1 MOL     -0.002280
     33 H13         8.2240   -4.2290    3.5930 hc        1 MOL     -0.002280
     34 H14         8.9670   -2.2540    2.2060 hc        1 MOL     -0.017904
     35 H15         9.0290   -3.3070    0.8670 hc        1 MOL     -0.017904
     36 H16        11.3800   -2.8620    1.9860 hx        1 MOL      0.155706
     37 H17        10.8610   -4.5190    1.8520 hx        1 MOL      0.155706
     38 H18        11.8480   -3.3440    4.0200 hn        1 MOL      0.323544
     39 H19        10.3510   -2.7550    4.1660 hn        1 MOL      0.323544
     40 H20        10.6240   -4.4120    4.1970 hn        1 MOL      0.323544
     41 N4          3.7420   -2.9650    0.5960 n         1 MOL     -0.388333
     42 C13         3.7810   -1.6150    1.2810 c3        1 MOL      0.029588
     43 C14         3.9060   -0.4360    0.2460 c         1 MOL      0.083742
     44 O6          3.8320   -0.6500   -0.9790 o         1 MOL     -0.353330
     45 C15         2.5210   -1.4670    2.1390 c3        1 MOL     -0.263391
     46 C16         1.2060   -1.8090    1.3480 c         1 MOL      0.774583
     47 O7          0.9010   -1.1010    0.3830 o         1 MOL     -0.678275
     48 O8          0.6380   -2.8080    1.6940 o         1 MOL     -0.678275
     49 H21         2.9250   -3.2640    0.0930 hn        1 MOL      0.385242
     50 H22         4.6940   -1.6040    1.8740 h1        1 MOL      0.092895
     51 H23         2.5000   -0.4640    2.5470 hc        1 MOL      0.038760
     52 H24         2.5140   -2.1470    2.9930 hc        1 MOL      0.038760
     53 N5          4.1500    0.7790    0.7530 n         1 MOL     -0.085157
     54 C17         4.3470    1.9990    0.0210 c3        1 MOL     -0.163968
     55 C18         2.9630    2.4560   -0.5950 c         1 MOL      0.573887
     56 O9          1.8910    1.8200   -0.4090 o         1 MOL     -0.538796
     57 H25         4.2490    0.8040    1.7590 hn        1 MOL      0.244399
     58 H26         5.0340    1.8050   -0.7990 h1        1 MOL      0.110465
     59 H27         4.7230    2.7670    0.6940 h1        1 MOL      0.110465
     60 N6          3.0180    3.6540   -1.2250 n         1 MOL     -0.592318
     61 C19         1.8850    4.4400   -1.8260 c3        1 MOL      0.441541
     62 C20         2.2980    5.9480   -1.8490 c         1 MOL      0.433510
     63 O10         3.4410    6.2440   -1.5950 o         1 MOL     -0.557160
     64 C21         1.5220    3.9260   -3.1950 c3        1 MOL     -0.429327
     65 C22         1.2670    2.4240   -3.3930 c         1 MOL      0.794143
     66 O11         0.1560    1.9440   -3.0580 o         1 MOL     -0.684235
     67 O12         2.0940    1.6910   -3.9830 o         1 MOL     -0.684235
     68 H28         3.9370    4.0770   -1.3200 hn        1 MOL      0.307231
     69 H29         1.0270    4.2950   -1.1770 h1        1 MOL      0.035203
     70 H30         2.3800    4.1330   -3.8270 hc        1 MOL      0.074120
     71 H31         0.5990    4.4140   -3.5110 hc        1 MOL      0.074120
     72 N7          1.5330    6.9690   -2.1010 n         1 MOL     -0.361856
     73 C23         0.0630    7.0650   -2.2490 c3        1 MOL     -0.228013
     74 C24        -0.6990    6.5140   -1.0120 c         1 MOL      0.702725
     75 O13        -0.5490    7.0430    0.0790 o         1 MOL     -0.543318
     76 H32         1.9620    7.8700   -2.0100 hn        1 MOL      0.318141
     77 H33        -0.2750    6.5020   -3.1230 h1        1 MOL      0.106801
     78 H34        -0.2030    8.1080   -2.3590 h1        1 MOL      0.106801
     79 N8         -1.6100    5.5870   -1.2580 n         1 MOL     -0.678120
     80 C25        -2.2870    5.0000   -0.1100 c3        1 MOL      0.044724
     81 C26        -1.6270    3.7680    0.5580 c         1 MOL      0.703608
     82 O14        -1.1770    2.8560   -0.1710 o         1 MOL     -0.661714
     83 C27        -3.7440    4.7370   -0.4870 c3        1 MOL      0.387262
     84 C28        -4.5410    4.0900    0.6110 c3        1 MOL     -0.381657
     85 O15        -3.7440    3.7760   -1.5110 oh        1 MOL     -0.668267
     86 H35        -1.9300    5.3960   -2.1910 hn        1 MOL      0.357411
     87 H36        -2.3500    5.7190    0.7010 h1        1 MOL      0.023569
     88 H37        -4.2960    5.6060   -0.8330 h1        1 MOL      0.018587
     89 H38        -3.8160    4.1880   -2.3740 ho        1 MOL      0.427111
     90 H39        -4.0870    3.2240    1.0730 hc        1 MOL      0.100959
     91 H40        -4.6580    4.8680    1.3720 hc        1 MOL      0.100959
     92 H41        -5.5210    3.8090    0.2080 hc        1 MOL      0.100959
     93 N9         -1.7130    3.8140    1.8550 n         1 MOL     -0.516366
     94 C29        -1.0970    2.8960    2.7340 c3        1 MOL     -0.238766
     95 C30        -1.5510    1.4480    2.5270 c         1 MOL      0.982996
     96 O16        -1.3220    0.8810    1.5270 o         1 MOL     -0.653508
     97 C31         0.4550    3.0470    2.6100 c3        1 MOL      0.023802
     98 C32         0.9420    4.4950    2.6780 c3        1 MOL      0.152193
     99 C33         1.2210    2.2010    3.6850 c3        1 MOL     -0.365138
    100 C34         2.4620    4.7720    2.6810 c3        1 MOL     -0.325085
    101 H42        -2.2020    4.5700    2.3060 hn        1 MOL      0.337712
    102 H43        -1.3650    3.2370    3.7320 h1        1 MOL      0.103702
    103 H44         0.8190    2.5890    1.6920 hc        1 MOL      0.080965
    104 H45         0.4990    5.0620    3.4950 hc        1 MOL     -0.008991
    105 H46         0.6070    4.9880    1.7600 hc        1 MOL     -0.008991
    106 H47         0.9290    1.1580    3.5760 hc        1 MOL      0.091002
    107 H48         2.3070    2.1970    3.6400 hc        1 MOL      0.091002
    108 H49         0.9720    2.5560    4.6840 hc        1 MOL      0.091002
    109 H50         2.5520    5.8330    2.4630 hc        1 MOL      0.083249
    110 H51         2.7410    4.6770    3.7290 hc        1 MOL      0.083249
    111 H52         3.0710    4.1210    2.0490 hc        1 MOL      0.083249
    112 N10        -2.2690    0.8350    3.4720 n         1 MOL     -0.740051
    113 C35        -2.6970   -0.6370    3.4830 c3        1 MOL      0.146845
    114 C36        -4.0100   -0.8750    2.7780 c         1 MOL      0.630690
    115 O17        -4.3630   -2.0000    2.6510 o         1 MOL     -0.554740
    116 C37        -2.7300   -1.1180    4.9420 c3        1 MOL      0.427814
    117 C38        -3.7640   -0.4330    5.7490 c3        1 MOL     -0.242146
    118 O18        -1.5600   -0.8900    5.6450 oh        1 MOL     -0.598023
    119 H53        -2.7440    1.4610    4.1020 hn        1 MOL      0.315713
    120 H54        -2.0550   -1.2650    2.8680 h1        1 MOL      0.020618
    121 H55        -2.9870   -2.1660    4.8070 h1        1 MOL     -0.033426
    122 H56        -0.9050   -1.4670    5.2490 ho        1 MOL      0.378714
    123 H57        -3.6320   -0.8050    6.7610 hc        1 MOL      0.051499
    124 H58        -3.7140    0.6580    5.6920 hc        1 MOL      0.051499
    125 H59        -4.7110   -0.8130    5.3850 hc        1 MOL      0.051499
    126 N11        -4.7100    0.2560    2.4300 n         1 MOL     -0.436753
    127 C39        -6.0490    0.1050    1.9140 c3        1 MOL     -0.117230
    128 C40        -6.0640   -0.6890    0.6170 c         1 MOL      0.571540
    129 O19        -5.4120   -0.2090   -0.3340 o         1 MOL     -0.486244
    130 C41        -6.7070    1.5110    1.8350 c3        1 MOL      0.541255
    131 C42        -8.1340    1.2720    1.6080 c3        1 MOL     -0.297668
    132 O20        -6.4700    2.2990    3.0160 oh        1 MOL     -0.635186
    133 H60        -4.2930    1.1300    2.6920 hn        1 MOL      0.189515
    134 H61        -6.6790   -0.4460    2.6140 h1        1 MOL      0.033349
    135 H62        -6.1830    1.9660    0.9980 h1        1 MOL     -0.038953
    136 H63        -6.6300    1.8070    3.8240 ho        1 MOL      0.392806
    137 H64        -8.4560    0.4520    2.2390 hc        1 MOL      0.060698
    138 H65        -8.5780    2.2120    1.9340 hc        1 MOL      0.060698
    139 H66        -8.3310    1.0300    0.5630 hc        1 MOL      0.060698
    140 N12        -6.7590   -1.8580    0.6070 n         1 MOL     -0.373559
    141 C43        -7.0220   -2.7520   -0.5320 c3        1 MOL      0.094062
    142 C44        -5.7750   -3.1090   -1.3600 c         1 MOL      0.615217
    143 O21        -5.7410   -3.1310   -2.5590 o         1 MOL     -0.508004
    144 C45        -8.2290   -2.3910   -1.3050 c3        1 MOL     -0.290392
    145 C46        -9.5580   -2.5340   -0.4130 c3        1 MOL      0.154480
    146 C47       -10.7660   -2.4650   -1.4110 c3        1 MOL     -0.104640
    147 C48       -12.1490   -2.6440   -0.7380 c3        1 MOL      0.030865
    148 N13       -13.1840   -2.8960   -1.7780 n4        1 MOL     -0.066769
    149 H67        -7.2390   -2.1240    1.4620 hn        1 MOL      0.234882
    150 H68        -7.2160   -3.7200   -0.0580 h1        1 MOL      0.071076
    151 H69        -8.2130   -3.1310   -2.0980 hc        1 MOL      0.111179
    152 H70        -8.2600   -1.3870   -1.7190 hc        1 MOL      0.111179
    153 H71        -9.5640   -1.7270    0.3020 hc        1 MOL     -0.025213
    154 H72        -9.5070   -3.4890    0.1090 hc        1 MOL     -0.025213
    155 H73       -10.5920   -3.3130   -2.0730 hc        1 MOL      0.057351
    156 H74       -10.8340   -1.5400   -1.9720 hc        1 MOL      0.057351
    157 H75       -12.5430   -1.9490    0.0010 hx        1 MOL      0.055871
    158 H76       -12.0040   -3.5910   -0.2040 hx        1 MOL      0.055871
    159 H77       -13.2680   -2.1120   -2.4060 hn        1 MOL      0.162694
    160 H78       -12.8730   -3.6000   -2.4300 hn        1 MOL      0.162694
    161 H79       -14.0800   -3.2180   -1.4540 hn        1 MOL      0.162694
    162 N14        -4.7280   -3.5000   -0.6770 n         1 MOL     -0.795382
    163 C49        -3.3850   -3.5140   -1.3000 c3        1 MOL      0.539804
    164 C50        -2.3650   -2.9740   -0.3540 c         1 MOL      0.377119
    165 O22        -1.8850   -1.8430   -0.6430 o         1 MOL     -0.629789
    166 C51        -3.1450   -4.8580   -2.0170 c3        1 MOL     -0.217411
    167 C52        -2.1940   -4.6180   -3.1710 c3        1 MOL     -0.105255
    168 C53        -2.8080   -3.8720   -4.3290 c         1 MOL      0.757441
    169 O23        -2.6410   -2.6650   -4.3820 o         1 MOL     -0.657647
    170 O24        -3.4310   -4.5010   -5.2090 o         1 MOL     -0.657647
    171 H80        -4.8300   -3.3850    0.3250 hn        1 MOL      0.316733
    172 H81        -3.3760   -2.7450   -2.0720 h1        1 MOL      0.063486
    173 H82        -4.0800   -5.2600   -2.3850 hc        1 MOL      0.057063
    174 H83        -2.8380   -5.6150   -1.2980 hc        1 MOL      0.057063
    175 H84        -1.8670   -5.5970   -3.5250 hc        1 MOL      0.015540
    176 H85        -1.2940   -4.1320   -2.8020 hc        1 MOL      0.015540
    177 N15        -1.9030   -3.6000    0.7000 n         1 MOL     -0.172909
    178 C54        -2.1600   -4.9440    1.2110 c3        1 MOL     -0.173604
    179 H86        -1.5210   -5.1320    2.0730 h1        1 MOL      0.070049
    180 H87        -3.2050   -5.0260    1.5090 h1        1 MOL      0.070049
    181 H88        -1.9450   -5.6760    0.4330 h1        1 MOL      0.070049
    182 H89        -1.1930   -3.1690    1.2630 hn        1 MOL      0.249763
    183 Ca1        -0.7510    0.4170   -0.9740 Ca        1 MOL      1.762227
    184 O25        -3.3700    1.1200   -1.1710 oh        1 MOL     -0.917074
    185 H90        -3.5710    2.0570   -1.2450 ho        1 MOL      0.430662
    186 H91        -4.1810    0.7340   -0.8450 ho        1 MOL      0.430662
    187 O26         1.5230   -0.5630   -2.4360 oh        1 MOL     -0.917074
    188 H92         2.1510   -0.6740   -1.7230 ho        1 MOL      0.430662
    189 H93         1.8470    0.1820   -2.9330 ho        1 MOL      0.430662
    190 O27        -1.4340   -0.5470   -3.2940 oh        1 MOL     -0.917074
    191 H94        -0.8880   -0.3510   -4.0520 ho        1 MOL      0.430662
    192 H95        -1.9960   -1.2650   -3.5770 ho        1 MOL      0.430662
@<TRIPOS>BOND
     1    1    2 1   
     2    1    4 1   
     3    1    5 1   
     4    1    6 1   
     5    2    3 2   
     6    2    7 1   
     7    7    8 1   
     8    7   15 1   
     9    8    9 1   
    10    8   11 1   
    11    8   16 1   
    12    9   10 2   
    13    9   19 1   
    14   11   12 1   
    15   11   17 1   
    16   11   18 1   
    17   12   13 1   
    18   12   14 1   
    19   19   20 1   
    20   19   28 1   
    21   20   21 1   
    22   20   23 1   
    23   20   29 1   
    24   21   22 2   
    25   21   41 1   
    26   23   24 1   
    27   23   30 1   
    28   23   31 1   
    29   24   25 1   
    30   24   32 1   
    31   24   33 1   
    32   25   26 1   
    33   25   34 1   
    34   25   35 1   
    35   26   27 1   
    36   26   36 1   
    37   26   37 1   
    38   27   38 1   
    39   27   39 1   
    40   27   40 1   
    41   41   42 1   
    42   41   49 1   
    43   42   43 1   
    44   42   45 1   
    45   42   50 1   
    46   43   44 2   
    47   43   53 1   
    48   45   46 1   
    49   45   51 1   
    50   45   52 1   
    51   46   47 1   
    52   46   48 1   
    53   53   54 1   
    54   53   57 1   
    55   54   55 1   
    56   54   58 1   
    57   54   59 1   
    58   55   56 2   
    59   55   60 1   
    60   60   61 1   
    61   60   68 1   
    62   61   62 1   
    63   61   64 1   
    64   61   69 1   
    65   62   63 2   
    66   62   72 1   
    67   64   65 1   
    68   64   70 1   
    69   64   71 1   
    70   65   66 1   
    71   65   67 1   
    72   72   73 1   
    73   72   76 1   
    74   73   74 1   
    75   73   77 1   
    76   73   78 1   
    77   74   75 2   
    78   74   79 1   
    79   79   80 1   
    80   79   86 1   
    81   80   81 1   
    82   80   83 1   
    83   80   87 1   
    84   81   82 2   
    85   81   93 1   
    86   83   84 1   
    87   83   85 1   
    88   83   88 1   
    89   84   90 1   
    90   84   91 1   
    91   84   92 1   
    92   85   89 1   
    93   93   94 1   
    94   93  101 1   
    95   94   95 1   
    96   94   97 1   
    97   94  102 1   
    98   95   96 2   
    99   95  112 1   
   100   97   98 1   
   101   97   99 1   
   102   97  103 1   
   103   98  100 1   
   104   98  104 1   
   105   98  105 1   
   106   99  106 1   
   107   99  107 1   
   108   99  108 1   
   109  100  109 1   
   110  100  110 1   
   111  100  111 1   
   112  112  113 1   
   113  112  119 1   
   114  113  114 1   
   115  113  116 1   
   116  113  120 1   
   117  114  115 2   
   118  114  126 1   
   119  116  117 1   
   120  116  118 1   
   121  116  121 1   
   122  117  123 1   
   123  117  124 1   
   124  117  125 1   
   125  118  122 1   
   126  126  127 1   
   127  126  133 1   
   128  127  128 1   
   129  127  130 1   
   130  127  134 1   
   131  128  129 2   
   132  128  140 1   
   133  130  131 1   
   134  130  132 1   
   135  130  135 1   
   136  131  137 1   
   137  131  138 1   
   138  131  139 1   
   139  132  136 1   
   140  140  141 1   
   141  140  149 1   
   142  141  142 1   
   143  141  144 1   
   144  141  150 1   
   145  142  143 2   
   146  142  162 1   
   147  144  145 1   
   148  144  151 1   
   149  144  152 1   
   150  145  146 1   
   151  145  153 1   
   152  145  154 1   
   153  146  147 1   
   154  146  155 1   
   155  146  156 1   
   156  147  148 1   
   157  147  157 1   
   158  147  158 1   
   159  148  159 1   
   160  148  160 1   
   161  148  161 1   
   162  162  163 1   
   163  162  171 1   
   164  163  164 1   
   165  163  166 1   
   166  163  172 1   
   167  164  165 2   
   168  164  177 1   
   169  166  167 1   
   170  166  173 1   
   171  166  174 1   
   172  167  168 1   
   173  167  175 1   
   174  167  176 1   
   175  168  169 1   
   176  168  170 1   
   177  177  178 1   
   178  177  182 1   
   179  178  179 1   
   180  178  180 1   
   181  178  181 1   
   182  184  185 1   
   183  184  186 1   
   184  187  188 1   
   185  187  189 1   
   186  190  191 1   
   187  190  192 1   
@<TRIPOS>SUBSTRUCTURE
     1 MOL         1 TEMP              0 ****  ****    0 ROOT
