@<TRIPOS>MOLECULE
MOL
  181   177     1     0     0
SMALL
resp


@<TRIPOS>ATOM
      1 C1          6.5640    3.9310    5.1770 c3        1 MOL     -0.259924
      2 C2          5.9220    2.7420    4.4520 c         1 MOL      0.674458
      3 O1          4.7260    2.5220    4.7250 o         1 MOL     -0.581920
      4 H1          7.6440    3.7930    5.2130 hc        1 MOL      0.064667
      5 H2          6.3320    4.8520    4.6410 hc        1 MOL      0.064667
      6 H3          6.1710    3.9920    6.1920 hc        1 MOL      0.064667
      7 N1          6.4460    2.1130    3.4590 n         1 MOL     -0.509914
      8 C3          7.8250    2.0910    3.0640 c3        1 MOL     -0.012985
      9 C4          8.3760    0.6760    3.0000 c         1 MOL      0.471840
     10 O2          7.8330   -0.3410    3.5100 o         1 MOL     -0.452288
     11 C5          7.9940    2.8310    1.7430 c3        1 MOL     -0.054589
     12 C6          7.0990    2.3270    0.6000 c         1 MOL      0.551071
     13 O3          6.3760    3.0930   -0.1070 o         1 MOL     -0.681389
     14 O4          7.3810    1.1900    0.1370 o         1 MOL     -0.681389
     15 H4          5.8730    1.4750    2.9210 hn        1 MOL      0.350996
     16 H5          8.4560    2.6360    3.7790 h1        1 MOL      0.079423
     17 H6          9.0370    2.8280    1.4240 hc        1 MOL      0.027262
     18 H7          7.8490    3.9050    1.8680 hc        1 MOL      0.027262
     19 N2          9.4440    0.4890    2.2820 n         1 MOL     -0.506298
     20 C7         10.1080   -0.7740    1.8580 c3        1 MOL      0.263119
     21 C8          9.1310   -1.9260    1.5320 c         1 MOL      0.358825
     22 O5          9.4840   -3.0350    1.8400 o         1 MOL     -0.494758
     23 C9         11.0540   -1.2180    3.0880 c3        1 MOL     -0.146230
     24 H8          9.8900    1.3240    1.9340 hn        1 MOL      0.269109
     25 H9         10.7410   -0.5580    1.0060 h1        1 MOL      0.022593
     26 H10        10.5760   -1.0370    4.0550 hc        1 MOL      0.034666
     27 H11        11.4310   -2.2300    2.9770 hc        1 MOL      0.034666
     28 H12        11.9820   -0.6390    3.0390 hc        1 MOL      0.034666
     29 N3          7.9280   -1.5880    0.9790 n         1 MOL     -0.287373
     30 C10         6.9770   -2.6280    0.6150 c3        1 MOL      0.191905
     31 C11         6.5420   -2.6190   -0.8350 c         1 MOL      0.414285
     32 O6          6.5050   -1.5420   -1.4330 o         1 MOL     -0.549581
     33 C12         5.7000   -2.6050    1.5740 c3        1 MOL      0.073992
     34 C13         4.8530   -1.4270    1.4880 c         1 MOL      0.590224
     35 O7          3.8820   -1.3830    2.3060 o         1 MOL     -0.667314
     36 O8          5.0740   -0.4490    0.7340 o         1 MOL     -0.667314
     37 H13         7.6280   -0.6260    0.8580 hn        1 MOL      0.141573
     38 H14         7.4380   -3.5950    0.7930 h1        1 MOL     -0.035451
     39 H15         5.9690   -2.7790    2.6160 hc        1 MOL     -0.012748
     40 H16         5.0650   -3.4620    1.3410 hc        1 MOL     -0.012748
     41 N4          6.2580   -3.7960   -1.3640 n         1 MOL     -0.317561
     42 C14         5.8260   -3.9710   -2.7630 c3        1 MOL     -0.424079
     43 C15         4.4810   -3.3680   -3.1390 c         1 MOL      0.621041
     44 O9          4.2130   -3.0330   -4.2810 o         1 MOL     -0.569853
     45 H17         6.1220   -4.5640   -0.7330 hn        1 MOL      0.275498
     46 H18         5.6970   -5.0260   -2.9850 h1        1 MOL      0.192578
     47 H19         6.6290   -3.6470   -3.4170 h1        1 MOL      0.192578
     48 N5          3.5550   -3.3200   -2.1860 n         1 MOL     -0.409405
     49 C16         2.2490   -2.6810   -2.3260 c3        1 MOL      0.015034
     50 C17         2.2780   -1.1160   -2.3460 c         1 MOL      0.595678
     51 O10         3.2890   -0.4970   -2.0150 o         1 MOL     -0.588003
     52 C18         1.3630   -3.1870   -1.1980 c3        1 MOL     -0.001392
     53 C19         0.9900   -4.6490   -1.3730 c         1 MOL      0.565038
     54 N6          0.9970   -5.4840   -0.3760 n         1 MOL     -0.778352
     55 O11         0.5060   -4.9800   -2.4860 o         1 MOL     -0.523539
     56 H20         3.8830   -3.6500   -1.2880 hn        1 MOL      0.287424
     57 H21         1.8540   -2.8160   -3.3300 h1        1 MOL      0.099174
     58 H22         0.4850   -2.5410   -1.0750 hc        1 MOL     -0.003226
     59 H23         1.9610   -3.1160   -0.2940 hc        1 MOL     -0.003226
     60 H24         1.1730   -5.1920    0.5750 hn        1 MOL      0.378692
     61 H25         0.3510   -6.2510   -0.5000 hn        1 MOL      0.378692
     62 N7          1.0770   -0.4690   -2.5970 n         1 MOL     -0.578539
     63 C20         1.0190    1.0110   -2.7360 c3        1 MOL      0.198590
     64 C21         0.2110    1.6740   -3.9120 c         1 MOL      0.498590
     65 O12         0.0980    1.0330   -5.0080 o         1 MOL     -0.548162
     66 H26         0.2640   -1.0530   -2.7070 hn        1 MOL      0.334623
     67 H27         2.0290    1.4060   -2.8570 h1        1 MOL      0.035185
     68 H28         0.7490    1.3440   -1.7280 h1        1 MOL      0.035185
     69 N8         -0.2130    2.9360   -3.8560 n         1 MOL     -0.467056
     70 C22        -0.2130    3.8770   -2.7020 c3        1 MOL      0.021726
     71 C23        -1.4780    3.6400   -1.8320 c         1 MOL      0.499885
     72 O13        -2.5620    3.5840   -2.4120 o         1 MOL     -0.545358
     73 C24        -0.3020    5.3210   -3.1750 c3        1 MOL      0.315931
     74 C25        -0.4910    6.3470   -2.0600 c3        1 MOL     -0.343939
     75 O14         0.9160    5.6300   -3.8890 oh        1 MOL     -0.643188
     76 H29        -0.6350    3.2670   -4.7120 hn        1 MOL      0.323745
     77 H30         0.6630    3.7770   -2.0720 h1        1 MOL      0.040210
     78 H31        -1.1170    5.4610   -3.8790 h1        1 MOL      0.032623
     79 H32         0.9740    6.5860   -3.9050 ho        1 MOL      0.387507
     80 H33         0.3440    6.2430   -1.3740 hc        1 MOL      0.097713
     81 H34        -0.4890    7.3530   -2.5030 hc        1 MOL      0.097713
     82 H35        -1.4050    6.1620   -1.4970 hc        1 MOL      0.097713
     83 N9         -1.4250    3.4490   -0.5100 n         1 MOL     -0.300700
     84 C26        -2.4600    2.9920    0.4430 c3        1 MOL      0.006842
     85 C27        -3.1350    4.1890    1.2080 c         1 MOL      0.549617
     86 O15        -2.4910    4.8950    1.9340 o         1 MOL     -0.572471
     87 C28        -1.8540    1.9900    1.4590 c3        1 MOL      0.125539
     88 C29        -1.0030    0.8330    0.8220 c3        1 MOL      0.003761
     89 C30        -2.9380    1.4440    2.4480 c3        1 MOL     -0.195170
     90 C31        -1.6080   -0.0300   -0.3020 c3        1 MOL     -0.260396
     91 H36        -0.5320    3.5500   -0.0400 hn        1 MOL      0.166165
     92 H37        -3.2120    2.3860   -0.0630 h1        1 MOL      0.064205
     93 H38        -1.1490    2.5120    2.1110 hc        1 MOL     -0.003170
     94 H39        -0.7200    0.2030    1.6750 hc        1 MOL     -0.006168
     95 H40        -0.0260    1.1660    0.4970 hc        1 MOL     -0.006168
     96 H41        -3.3580    2.1930    3.1290 hc        1 MOL      0.066306
     97 H42        -3.7950    0.9680    1.9720 hc        1 MOL      0.066306
     98 H43        -2.4050    0.7860    3.1350 hc        1 MOL      0.066306
     99 H44        -2.5460   -0.4290    0.0880 hc        1 MOL      0.083463
    100 H45        -1.6820    0.4790   -1.2650 hc        1 MOL      0.083463
    101 H46        -0.9180   -0.8590   -0.4830 hc        1 MOL      0.083463
    102 N10        -4.4420    4.4520    0.9770 n         1 MOL     -0.450769
    103 C32        -5.4230    3.7650    0.1070 c3        1 MOL      0.026727
    104 C33        -6.2140    2.7480    0.8540 c         1 MOL      0.659457
    105 O16        -6.1180    2.5080    2.0500 o         1 MOL     -0.564017
    106 C34        -6.3910    4.7910   -0.4330 c3        1 MOL     -0.205393
    107 C35        -7.0450    5.8130    0.4760 c         1 MOL      0.761757
    108 O17        -8.3130    5.9330    0.4900 o         1 MOL     -0.729673
    109 O18        -6.3320    6.6260    1.0580 o         1 MOL     -0.729673
    110 H47        -4.8720    5.1780    1.5260 hn        1 MOL      0.306913
    111 H48        -4.9510    3.2440   -0.7190 h1        1 MOL      0.085825
    112 H49        -7.1230    4.2460   -1.0370 hc        1 MOL      0.030481
    113 H50        -5.9100    5.3610   -1.2300 hc        1 MOL      0.030481
    114 N11        -6.8840    1.8590    0.0250 n         1 MOL     -0.752503
    115 C36        -7.5920    0.6180    0.3790 c3        1 MOL      0.426512
    116 C37        -7.8850   -0.2060   -0.8650 c         1 MOL      0.221684
    117 O19        -8.4100    0.3720   -1.8020 o         1 MOL     -0.517006
    118 C38        -8.9180    1.0830    1.0200 c3        1 MOL     -0.211015
    119 C39        -9.7220   -0.1260    1.4850 ca        1 MOL      0.053870
    120 C40       -10.7870   -0.5620    0.7070 ca        1 MOL     -0.115278
    121 C41        -9.3260   -0.8680    2.5410 ca        1 MOL     -0.115278
    122 C42       -11.4090   -1.7540    1.0080 ca        1 MOL     -0.150470
    123 C43        -9.9580   -2.0910    2.9020 ca        1 MOL     -0.150470
    124 C44       -11.0010   -2.5810    2.0750 ca        1 MOL     -0.108532
    125 H51        -6.9210    2.1040   -0.9540 hn        1 MOL      0.363534
    126 H52        -6.8930    0.0800    1.0120 h1        1 MOL     -0.001477
    127 H53        -9.3840    1.7540    0.3000 hc        1 MOL      0.086125
    128 H54        -8.5290    1.6420    1.8720 hc        1 MOL      0.086125
    129 H55       -11.2190    0.0280   -0.0910 ha        1 MOL      0.114625
    130 H56        -8.5320   -0.4090    3.1110 ha        1 MOL      0.114625
    131 H57       -12.2660   -2.0120    0.4010 ha        1 MOL      0.104206
    132 H58        -9.7800   -2.5510    3.8550 ha        1 MOL      0.104206
    133 H59       -11.5010   -3.4970    2.3390 ha        1 MOL      0.102649
    134 N12        -7.6880   -1.5250   -0.8430 n         1 MOL      0.121365
    135 C45        -7.0650   -2.3170    0.2850 c3        1 MOL      0.029624
    136 C46        -5.5140   -2.1150    0.4190 c         1 MOL      0.390184
    137 O20        -5.0180   -1.0570    0.0240 o         1 MOL     -0.497940
    138 C47        -7.4260   -3.7390   -0.1400 c3        1 MOL      0.052419
    139 C48        -7.6120   -3.7980   -1.6160 c3        1 MOL      0.009505
    140 C49        -8.0820   -2.3930   -1.9660 c3        1 MOL     -0.049781
    141 H60        -7.5960   -2.0950    1.2070 h1        1 MOL     -0.035952
    142 H61        -6.6160   -4.4560    0.0520 hc        1 MOL     -0.029121
    143 H62        -8.3410   -4.0440    0.3720 hc        1 MOL     -0.029121
    144 H63        -6.6050   -3.9720   -1.9880 hc        1 MOL      0.020261
    145 H64        -8.3220   -4.5710   -1.9160 hc        1 MOL      0.020261
    146 H65        -7.6250   -2.0510   -2.8960 h1        1 MOL      0.028685
    147 H66        -9.1610   -2.3280   -2.0940 h1        1 MOL      0.028685
    148 N13        -4.7670   -3.1450    1.0170 n         1 MOL     -0.281868
    149 C50        -3.3340   -3.0820    1.3000 c3        1 MOL      0.448669
    150 C51        -2.9040   -3.6220    2.7000 c         1 MOL      0.254739
    151 O21        -2.0140   -4.4880    2.8100 o         1 MOL     -0.503320
    152 C52        -2.3850   -3.6140    0.1490 c3        1 MOL     -0.064074
    153 C53        -2.4520   -5.1210   -0.1670 c3        1 MOL     -0.166464
    154 C54        -3.7010   -5.4630   -0.9940 c         1 MOL      0.666181
    155 O22        -4.6640   -6.1130   -0.5050 o         1 MOL     -0.700334
    156 O23        -3.6850   -5.0220   -2.1890 o         1 MOL     -0.700334
    157 H67        -5.2520   -3.9400    1.4020 hn        1 MOL      0.207003
    158 H68        -3.1750   -2.0090    1.3040 h1        1 MOL     -0.065835
    159 H69        -1.3820   -3.3830    0.5100 hc        1 MOL      0.031086
    160 H70        -2.5520   -3.0820   -0.7830 hc        1 MOL      0.031086
    161 H71        -2.5280   -5.6870    0.7610 hc        1 MOL      0.003554
    162 H72        -1.4900   -5.3340   -0.6340 hc        1 MOL      0.003554
    163 N14        -3.6890   -3.4170    3.8180 n         1 MOL     -0.316371
    164 C55        -4.7800   -2.5380    4.1100 c3        1 MOL     -0.086841
    165 H73        -5.7210   -3.0370    3.8780 h1        1 MOL      0.058252
    166 H74        -4.7620   -2.2730    5.1680 h1        1 MOL      0.058252
    167 H75        -4.6900   -1.6330    3.5080 h1        1 MOL      0.058252
    168 H76        -3.4810   -4.0610    4.5630 hn        1 MOL      0.270378
    169 Ca1         5.4110    1.0320   -1.4350 Ca        1 MOL      1.801626
    170 O24         5.3690    0.1480   -4.0210 oh        1 MOL     -0.849956
    171 H77         5.4360   -0.7430   -4.3640 ho        1 MOL      0.421114
    172 H78         4.9310    0.6360   -4.7180 ho        1 MOL      0.421114
    173 O25         7.6120    1.7270   -2.7250 oh        1 MOL     -0.849956
    174 H79         8.3180    1.3810   -2.1920 ho        1 MOL      0.421114
    175 H80         8.0410    2.3460   -3.3160 ho        1 MOL      0.421114
    176 O26         4.9440    3.1740   -2.9220 oh        1 MOL     -0.849956
    177 H81         5.1500    4.0500   -2.5810 ho        1 MOL      0.421114
    178 H82         4.9840    3.2660   -3.8730 ho        1 MOL      0.421114
    179 O27         3.1740    2.0950   -0.2420 oh        1 MOL     -0.849956
    180 H83         2.7750    2.9320   -0.4640 ho        1 MOL      0.421114
    181 H84         2.7450    1.8340    0.5800 ho        1 MOL      0.421114
@<TRIPOS>BOND
     1    1    2 1   
     2    1    4 1   
     3    1    5 1   
     4    1    6 1   
     5    2    3 2   
     6    2    7 1   
     7    7    8 1   
     8    7   15 1   
     9    8    9 1   
    10    8   11 1   
    11    8   16 1   
    12    9   10 2   
    13    9   19 1   
    14   11   12 1   
    15   11   17 1   
    16   11   18 1   
    17   12   13 1   
    18   12   14 1   
    19   19   20 1   
    20   19   24 1   
    21   20   21 1   
    22   20   23 1   
    23   20   25 1   
    24   21   22 2   
    25   21   29 1   
    26   23   26 1   
    27   23   27 1   
    28   23   28 1   
    29   29   30 1   
    30   29   37 1   
    31   30   31 1   
    32   30   33 1   
    33   30   38 1   
    34   31   32 2   
    35   31   41 1   
    36   33   34 1   
    37   33   39 1   
    38   33   40 1   
    39   34   35 1   
    40   34   36 1   
    41   41   42 1   
    42   41   45 1   
    43   42   43 1   
    44   42   46 1   
    45   42   47 1   
    46   43   44 2   
    47   43   48 1   
    48   48   49 1   
    49   48   56 1   
    50   49   50 1   
    51   49   52 1   
    52   49   57 1   
    53   50   51 2   
    54   50   62 1   
    55   52   53 1   
    56   52   58 1   
    57   52   59 1   
    58   53   54 1   
    59   53   55 2   
    60   54   60 1   
    61   54   61 1   
    62   62   63 1   
    63   62   66 1   
    64   63   64 1   
    65   63   67 1   
    66   63   68 1   
    67   64   65 2   
    68   64   69 1   
    69   69   70 1   
    70   69   76 1   
    71   70   71 1   
    72   70   73 1   
    73   70   77 1   
    74   71   72 2   
    75   71   83 1   
    76   73   74 1   
    77   73   75 1   
    78   73   78 1   
    79   74   80 1   
    80   74   81 1   
    81   74   82 1   
    82   75   79 1   
    83   83   84 1   
    84   83   91 1   
    85   84   85 1   
    86   84   87 1   
    87   84   92 1   
    88   85   86 2   
    89   85  102 1   
    90   87   88 1   
    91   87   89 1   
    92   87   93 1   
    93   88   90 1   
    94   88   94 1   
    95   88   95 1   
    96   89   96 1   
    97   89   97 1   
    98   89   98 1   
    99   90   99 1   
   100   90  100 1   
   101   90  101 1   
   102  102  103 1   
   103  102  110 1   
   104  103  104 1   
   105  103  106 1   
   106  103  111 1   
   107  104  105 2   
   108  104  114 1   
   109  106  107 1   
   110  106  112 1   
   111  106  113 1   
   112  107  108 1   
   113  107  109 1   
   114  114  115 1   
   115  114  125 1   
   116  115  116 1   
   117  115  118 1   
   118  115  126 1   
   119  116  117 2   
   120  116  134 1   
   121  118  119 1   
   122  118  127 1   
   123  118  128 1   
   124  119  120 ar  
   125  119  121 ar  
   126  120  122 ar  
   127  120  129 1   
   128  121  123 ar  
   129  121  130 1   
   130  122  124 ar  
   131  122  131 1   
   132  123  124 ar  
   133  123  132 1   
   134  124  133 1   
   135  134  135 1   
   136  134  140 1   
   137  135  136 1   
   138  135  138 1   
   139  135  141 1   
   140  136  137 2   
   141  136  148 1   
   142  138  139 1   
   143  138  142 1   
   144  138  143 1   
   145  139  140 1   
   146  139  144 1   
   147  139  145 1   
   148  140  146 1   
   149  140  147 1   
   150  148  149 1   
   151  148  157 1   
   152  149  150 1   
   153  149  152 1   
   154  149  158 1   
   155  150  151 2   
   156  150  163 1   
   157  152  153 1   
   158  152  159 1   
   159  152  160 1   
   160  153  154 1   
   161  153  161 1   
   162  153  162 1   
   163  154  155 1   
   164  154  156 1   
   165  163  164 1   
   166  163  168 1   
   167  164  165 1   
   168  164  166 1   
   169  164  167 1   
   170  170  171 1   
   171  170  172 1   
   172  173  174 1   
   173  173  175 1   
   174  176  177 1   
   175  176  178 1   
   176  179  180 1   
   177  179  181 1   
@<TRIPOS>SUBSTRUCTURE
     1 MOL         1 TEMP              0 ****  ****    0 ROOT
