@<TRIPOS>MOLECULE
MOL
  181   177     1     0     0
SMALL
resp


@<TRIPOS>ATOM
      1 C1         -9.3560    7.6230   -0.1740 c3        1 MOL     -0.237178
      2 C2         -8.4260    6.4100   -0.3570 c         1 MOL      0.624136
      3 O1         -7.4890    6.4680   -1.1460 o         1 MOL     -0.598158
      4 H1         -8.7560    8.5180   -0.0090 hc        1 MOL      0.061223
      5 H2         -9.9650    7.7530   -1.0690 hc        1 MOL      0.061223
      6 H3        -10.0050    7.4580    0.6860 hc        1 MOL      0.061223
      7 N1         -8.5710    5.2480    0.2440 n         1 MOL     -0.528332
      8 C3         -9.4970    4.7880    1.2780 c3        1 MOL      0.155758
      9 C4        -10.7560    4.0720    0.7260 c         1 MOL      0.559710
     10 O2        -11.8680    4.2470    1.2350 o         1 MOL     -0.570303
     11 C5         -8.6820    3.8620    2.2000 c3        1 MOL     -0.214503
     12 C6         -7.7460    2.8690    1.6030 c         1 MOL      0.768200
     13 O3         -6.9180    2.2270    2.3000 o         1 MOL     -0.767945
     14 O4         -7.7780    2.5820    0.3600 o         1 MOL     -0.767945
     15 H4         -7.9680    4.5270   -0.1460 hn        1 MOL      0.356607
     16 H5         -9.8660    5.5510    1.9490 h1        1 MOL      0.045404
     17 H6         -9.2830    3.4670    3.0220 hc        1 MOL      0.056229
     18 H7         -7.9380    4.4600    2.7370 hc        1 MOL      0.056229
     19 N2        -10.6280    3.1870   -0.3090 n         1 MOL     -0.627355
     20 C7        -11.6740    2.3780   -0.9390 c3        1 MOL      0.428277
     21 C8        -11.0090    1.1020   -1.5490 c         1 MOL      0.214663
     22 O5        -11.6030    0.4620   -2.3880 o         1 MOL     -0.499344
     23 C9        -12.5840    3.1040   -1.8820 c3        1 MOL     -0.272096
     24 H8         -9.6800    3.0290   -0.6230 hn        1 MOL      0.312160
     25 H9        -12.3510    2.0390   -0.1480 h1        1 MOL      0.011108
     26 H10       -13.3120    2.3990   -2.2950 hc        1 MOL      0.070788
     27 H11       -13.0960    3.9470   -1.4220 hc        1 MOL      0.070788
     28 H12       -12.0330    3.3900   -2.7790 hc        1 MOL      0.070788
     29 N3         -9.7720    0.6350   -1.2640 n         1 MOL     -0.000082
     30 C10        -9.1000   -0.6680   -1.5030 c3        1 MOL     -0.103790
     31 C11        -8.3450   -1.2930   -0.2510 c         1 MOL      0.478145
     32 O6         -8.0240   -0.4970    0.6960 o         1 MOL     -0.541535
     33 C12        -8.2410   -0.6810   -2.7630 c3        1 MOL     -0.167874
     34 C13        -7.0250    0.2800   -2.5610 c         1 MOL      0.673177
     35 O7         -6.8220    1.3140   -3.2410 o         1 MOL     -0.679354
     36 O8         -6.2320   -0.0570   -1.6320 o         1 MOL     -0.679354
     37 H13        -9.3050    1.1320   -0.5220 hn        1 MOL      0.125912
     38 H14        -9.8670   -1.3830   -1.8040 h1        1 MOL      0.068363
     39 H15        -8.8060   -0.3400   -3.6220 hc        1 MOL      0.057851
     40 H16        -7.9970   -1.7180   -3.0120 hc        1 MOL      0.057851
     41 N4         -8.0680   -2.6300   -0.2140 n         1 MOL     -0.484381
     42 C14        -7.5660   -3.3580    0.9430 c3        1 MOL     -0.025612
     43 C15        -6.1550   -3.0520    1.4660 c         1 MOL      0.560897
     44 O9         -5.5950   -1.9500    1.2740 o         1 MOL     -0.565607
     45 H17        -8.2440   -3.1000   -1.0910 hn        1 MOL      0.334967
     46 H18        -7.6640   -4.4270    0.7660 h1        1 MOL      0.082916
     47 H19        -8.3070   -3.2370    1.7370 h1        1 MOL      0.082916
     48 N5         -5.6160   -3.9690    2.2810 n         1 MOL     -0.520084
     49 C16        -4.3330   -3.9190    2.9650 c3        1 MOL      0.041865
     50 C17        -3.1060   -4.2780    2.0870 c         1 MOL      0.588802
     51 O10        -2.0010   -3.9730    2.5340 o         1 MOL     -0.525562
     52 C18        -4.3370   -4.8130    4.1590 c3        1 MOL     -0.336988
     53 C19        -5.5230   -4.3760    5.1460 c         1 MOL      0.693499
     54 N6         -6.1550   -5.3160    5.8580 n         1 MOL     -0.801171
     55 O11        -5.8500   -3.1460    5.2850 o         1 MOL     -0.548277
     56 H20        -6.0310   -4.8740    2.4340 hn        1 MOL      0.273312
     57 H21        -4.1650   -2.9050    3.3100 h1        1 MOL      0.158700
     58 H22        -3.4150   -4.8940    4.7300 hc        1 MOL      0.103506
     59 H23        -4.5570   -5.8530    3.9210 hc        1 MOL      0.103506
     60 H24        -5.9640   -6.2860    5.6280 hn        1 MOL      0.378816
     61 H25        -6.8020   -5.0280    6.5700 hn        1 MOL      0.378816
     62 N7         -3.2570   -4.6310    0.8540 n         1 MOL     -0.457949
     63 C20        -2.1600   -4.7830   -0.1710 c3        1 MOL     -0.027573
     64 C21        -1.9850   -3.6620   -1.2480 c         1 MOL      0.763754
     65 O12        -2.6580   -2.6780   -1.3010 o         1 MOL     -0.658910
     66 H26        -4.1770   -4.8430    0.4950 hn        1 MOL      0.299398
     67 H27        -2.4750   -5.6720   -0.7170 h1        1 MOL      0.066174
     68 H28        -1.2090   -5.0510    0.3130 h1        1 MOL      0.066174
     69 N8         -1.0650   -3.7410   -2.1610 n         1 MOL     -0.396061
     70 C22        -0.1240   -4.8780   -2.2770 c3        1 MOL     -0.310033
     71 C23         1.3690   -4.4050   -2.2380 c         1 MOL      0.522926
     72 O13         2.2910   -5.2210   -2.4860 o         1 MOL     -0.581770
     73 C24        -0.3130   -5.5590   -3.6110 c3        1 MOL      0.438668
     74 C25        -1.7860   -6.1360   -3.6700 c3        1 MOL     -0.313257
     75 O14        -0.1980   -4.6330   -4.6800 oh        1 MOL     -0.597413
     76 H29        -1.0690   -3.0350   -2.8760 hn        1 MOL      0.340225
     77 H30        -0.3400   -5.6310   -1.5110 h1        1 MOL      0.137558
     78 H31         0.3960   -6.3750   -3.7470 h1        1 MOL      0.007829
     79 H32         0.6730   -4.8090   -5.0420 ho        1 MOL      0.383664
     80 H33        -1.7770   -6.9830   -4.3530 hc        1 MOL      0.061434
     81 H34        -2.0620   -6.5070   -2.6830 hc        1 MOL      0.061434
     82 H35        -2.5320   -5.3610   -3.8390 hc        1 MOL      0.061434
     83 N9          1.6330   -3.1670   -1.9480 n         1 MOL     -0.199075
     84 C26         2.9090   -2.4030   -1.8130 c3        1 MOL     -0.019013
     85 C27         3.1350   -1.8020   -0.4100 c         1 MOL      0.506196
     86 O15         2.1400   -1.6710    0.3230 o         1 MOL     -0.580133
     87 C28         3.0240   -1.3100   -2.8740 c3        1 MOL      0.009863
     88 C29         2.0630   -0.0820   -2.5630 c3        1 MOL     -0.050917
     89 C30         2.8100   -1.8150   -4.2620 c3        1 MOL      0.015515
     90 C31         2.2200    1.0920   -3.5400 c3        1 MOL      0.023794
     91 H36         0.8360   -2.6610   -1.6030 hn        1 MOL      0.134864
     92 H37         3.7040   -3.1180   -2.0380 h1        1 MOL      0.150946
     93 H38         4.0720   -1.0140   -2.9100 hc        1 MOL      0.054094
     94 H39         2.3540    0.3150   -1.5900 hc        1 MOL      0.005145
     95 H40         1.0250   -0.3980   -2.4800 hc        1 MOL      0.005145
     96 H41         1.7790   -2.0890   -4.4660 hc        1 MOL     -0.017402
     97 H42         3.1040   -1.0680   -4.9990 hc        1 MOL     -0.017402
     98 H43         3.4020   -2.7000   -4.4820 hc        1 MOL     -0.017402
     99 H44         3.2690    1.3500   -3.5930 hc        1 MOL     -0.005364
    100 H45         1.7480    0.8790   -4.4990 hc        1 MOL     -0.005364
    101 H46         1.6970    1.9450   -3.1080 hc        1 MOL     -0.005364
    102 N10         4.3450   -1.4640    0.0470 n         1 MOL     -0.423874
    103 C32         5.6670   -1.7120   -0.5490 c3        1 MOL      0.146575
    104 C33         6.7270   -0.7390    0.1450 c         1 MOL      0.474053
    105 O16         6.3740   -0.0820    1.1900 o         1 MOL     -0.479217
    106 C34         5.9750   -3.2110   -0.4240 c3        1 MOL      0.131582
    107 C35         5.9340   -3.7850    1.0010 c         1 MOL      0.614968
    108 O17         5.7730   -5.0470    1.1240 o         1 MOL     -0.702097
    109 O18         6.1400   -2.9980    1.9610 o         1 MOL     -0.702097
    110 H47         4.3780   -0.9860    0.9470 hn        1 MOL      0.302026
    111 H48         5.6180   -1.5820   -1.6280 h1        1 MOL     -0.019384
    112 H49         6.9690   -3.4130   -0.8270 hc        1 MOL     -0.091602
    113 H50         5.3030   -3.8320   -1.0190 hc        1 MOL     -0.091602
    114 N11         7.9640   -0.7090   -0.4030 n         1 MOL     -0.710041
    115 C36         9.1810   -0.2330    0.1810 c3        1 MOL      0.723269
    116 C37         9.9470    0.6740   -0.8200 c         1 MOL      0.044800
    117 O19        10.0370    0.3220   -2.0020 o         1 MOL     -0.468402
    118 C38        10.0600   -1.4810    0.3350 c3        1 MOL     -0.182608
    119 C39        11.3020   -1.0870    1.1360 ca        1 MOL      0.040011
    120 C40        12.5890   -0.8340    0.5780 ca        1 MOL     -0.127529
    121 C41        11.1110   -0.8920    2.5040 ca        1 MOL     -0.127529
    122 C42        13.6510   -0.5130    1.4500 ca        1 MOL     -0.161196
    123 C43        12.2230   -0.5890    3.3420 ca        1 MOL     -0.161196
    124 C44        13.5190   -0.3540    2.8070 ca        1 MOL     -0.086793
    125 H51         8.0610   -1.0960   -1.3390 hn        1 MOL      0.342303
    126 H52         8.9420    0.2390    1.1330 h1        1 MOL     -0.059692
    127 H53        10.4000   -1.7910   -0.6530 hc        1 MOL      0.067242
    128 H54         9.5490   -2.2930    0.8580 hc        1 MOL      0.067242
    129 H55        12.7580   -1.0020   -0.4700 ha        1 MOL      0.126874
    130 H56        10.0950   -0.8670    2.8500 ha        1 MOL      0.126874
    131 H57        14.5680   -0.1630    1.0070 ha        1 MOL      0.106324
    132 H58        12.1500   -0.4790    4.4150 ha        1 MOL      0.106324
    133 H59        14.3240    0.1080    3.3740 ha        1 MOL      0.096935
    134 N12        10.6320    1.7620   -0.3500 n         1 MOL      0.133586
    135 C45        10.4950    2.4010    1.0430 c3        1 MOL     -0.025882
    136 C46         9.2600    3.0990    1.2870 c         1 MOL      0.547660
    137 O20         8.9040    3.1230    2.4460 o         1 MOL     -0.563039
    138 C47        11.7290    3.3950    1.1050 c3        1 MOL     -0.158966
    139 C48        12.6460    2.9010   -0.0420 c3        1 MOL      0.090499
    140 C49        11.7590    2.3570   -1.1380 c3        1 MOL     -0.059216
    141 H60        10.6520    1.5570    1.7230 h1        1 MOL      0.069691
    142 H61        11.3640    4.3630    0.7850 hc        1 MOL      0.061812
    143 H62        12.2310    3.4180    2.0790 hc        1 MOL      0.061812
    144 H63        13.3000    3.6690   -0.4320 hc        1 MOL     -0.028362
    145 H64        13.2480    2.0490    0.2850 hc        1 MOL     -0.028362
    146 H65        11.3470    3.1450   -1.7730 h1        1 MOL      0.041549
    147 H66        12.3330    1.6140   -1.6920 h1        1 MOL      0.041549
    148 N13         8.4250    3.5000    0.2780 n         1 MOL     -0.407521
    149 C50         7.0540    4.0730    0.3230 c3        1 MOL      0.037944
    150 C51         7.1470    5.4780    0.9800 c         1 MOL      0.491208
    151 O21         7.7080    6.4350    0.4540 o         1 MOL     -0.565808
    152 C52         6.5970    4.1920   -1.1140 c3        1 MOL     -0.081848
    153 C53         6.6670    2.8670   -1.9060 c3        1 MOL      0.120219
    154 C54         5.7930    2.7950   -3.1770 c         1 MOL      0.655815
    155 O22         5.6680    1.6490   -3.7830 o         1 MOL     -0.711013
    156 O23         5.2520    3.8110   -3.6800 o         1 MOL     -0.711013
    157 H67         8.8130    3.4310   -0.6520 hn        1 MOL      0.241786
    158 H68         6.4270    3.4240    0.9380 h1        1 MOL      0.099544
    159 H69         7.2540    4.9150   -1.5920 hc        1 MOL      0.025319
    160 H70         5.5910    4.6180   -1.1410 hc        1 MOL      0.025319
    161 H71         6.4330    2.0480   -1.2220 hc        1 MOL     -0.064591
    162 H72         7.6530    2.5820   -2.2910 hc        1 MOL     -0.064591
    163 N14         6.6160    5.7360    2.1890 n         1 MOL     -0.410388
    164 C55         6.2020    4.7360    3.2550 c3        1 MOL     -0.057918
    165 H73         6.2330    3.7290    2.8390 h1        1 MOL      0.063393
    166 H74         6.8870    4.8010    4.1010 h1        1 MOL      0.063393
    167 H75         5.1890    4.9600    3.5900 h1        1 MOL      0.063393
    168 H76         6.6410    6.7000    2.5120 hn        1 MOL      0.279263
    169 Ca1        -5.5850    0.5980    0.9330 Ca        1 MOL      1.801038
    170 O24        -3.5330    2.1990    1.8510 oh        1 MOL     -0.847080
    171 H77        -3.4120    2.3830    2.7830 ho        1 MOL      0.420896
    172 H78        -2.6870    2.4270    1.4620 ho        1 MOL      0.420896
    173 O25        -5.2080    2.4840   -0.9230 oh        1 MOL     -0.847080
    174 H79        -5.2970    1.9590   -1.7180 ho        1 MOL      0.420896
    175 H80        -5.1760    3.3890   -1.2510 ho        1 MOL      0.420896
    176 O26        -3.2650   -0.4480    0.0600 oh        1 MOL     -0.847080
    177 H81        -2.8890   -0.2740   -0.8010 ho        1 MOL      0.420896
    178 H82        -2.7060   -1.1250    0.4430 ho        1 MOL      0.420896
    179 O27        -5.0650   -0.2600    3.5750 oh        1 MOL     -0.847080
    180 H83        -4.5300   -0.0610    4.3290 ho        1 MOL      0.420896
    181 H84        -5.7890   -0.7850    3.9270 ho        1 MOL      0.420896
@<TRIPOS>BOND
     1    1    2 1   
     2    1    4 1   
     3    1    5 1   
     4    1    6 1   
     5    2    3 2   
     6    2    7 1   
     7    7    8 1   
     8    7   15 1   
     9    8    9 1   
    10    8   11 1   
    11    8   16 1   
    12    9   10 2   
    13    9   19 1   
    14   11   12 1   
    15   11   17 1   
    16   11   18 1   
    17   12   13 1   
    18   12   14 1   
    19   19   20 1   
    20   19   24 1   
    21   20   21 1   
    22   20   23 1   
    23   20   25 1   
    24   21   22 2   
    25   21   29 1   
    26   23   26 1   
    27   23   27 1   
    28   23   28 1   
    29   29   30 1   
    30   29   37 1   
    31   30   31 1   
    32   30   33 1   
    33   30   38 1   
    34   31   32 2   
    35   31   41 1   
    36   33   34 1   
    37   33   39 1   
    38   33   40 1   
    39   34   35 1   
    40   34   36 1   
    41   41   42 1   
    42   41   45 1   
    43   42   43 1   
    44   42   46 1   
    45   42   47 1   
    46   43   44 2   
    47   43   48 1   
    48   48   49 1   
    49   48   56 1   
    50   49   50 1   
    51   49   52 1   
    52   49   57 1   
    53   50   51 2   
    54   50   62 1   
    55   52   53 1   
    56   52   58 1   
    57   52   59 1   
    58   53   54 1   
    59   53   55 2   
    60   54   60 1   
    61   54   61 1   
    62   62   63 1   
    63   62   66 1   
    64   63   64 1   
    65   63   67 1   
    66   63   68 1   
    67   64   65 2   
    68   64   69 1   
    69   69   70 1   
    70   69   76 1   
    71   70   71 1   
    72   70   73 1   
    73   70   77 1   
    74   71   72 2   
    75   71   83 1   
    76   73   74 1   
    77   73   75 1   
    78   73   78 1   
    79   74   80 1   
    80   74   81 1   
    81   74   82 1   
    82   75   79 1   
    83   83   84 1   
    84   83   91 1   
    85   84   85 1   
    86   84   87 1   
    87   84   92 1   
    88   85   86 2   
    89   85  102 1   
    90   87   88 1   
    91   87   89 1   
    92   87   93 1   
    93   88   90 1   
    94   88   94 1   
    95   88   95 1   
    96   89   96 1   
    97   89   97 1   
    98   89   98 1   
    99   90   99 1   
   100   90  100 1   
   101   90  101 1   
   102  102  103 1   
   103  102  110 1   
   104  103  104 1   
   105  103  106 1   
   106  103  111 1   
   107  104  105 2   
   108  104  114 1   
   109  106  107 1   
   110  106  112 1   
   111  106  113 1   
   112  107  108 1   
   113  107  109 1   
   114  114  115 1   
   115  114  125 1   
   116  115  116 1   
   117  115  118 1   
   118  115  126 1   
   119  116  117 2   
   120  116  134 1   
   121  118  119 1   
   122  118  127 1   
   123  118  128 1   
   124  119  120 ar  
   125  119  121 ar  
   126  120  122 ar  
   127  120  129 1   
   128  121  123 ar  
   129  121  130 1   
   130  122  124 ar  
   131  122  131 1   
   132  123  124 ar  
   133  123  132 1   
   134  124  133 1   
   135  134  135 1   
   136  134  140 1   
   137  135  136 1   
   138  135  138 1   
   139  135  141 1   
   140  136  137 2   
   141  136  148 1   
   142  138  139 1   
   143  138  142 1   
   144  138  143 1   
   145  139  140 1   
   146  139  144 1   
   147  139  145 1   
   148  140  146 1   
   149  140  147 1   
   150  148  149 1   
   151  148  157 1   
   152  149  150 1   
   153  149  152 1   
   154  149  158 1   
   155  150  151 2   
   156  150  163 1   
   157  152  153 1   
   158  152  159 1   
   159  152  160 1   
   160  153  154 1   
   161  153  161 1   
   162  153  162 1   
   163  154  155 1   
   164  154  156 1   
   165  163  164 1   
   166  163  168 1   
   167  164  165 1   
   168  164  166 1   
   169  164  167 1   
   170  170  171 1   
   171  170  172 1   
   172  173  174 1   
   173  173  175 1   
   174  176  177 1   
   175  176  178 1   
   176  179  180 1   
   177  179  181 1   
@<TRIPOS>SUBSTRUCTURE
     1 MOL         1 TEMP              0 ****  ****    0 ROOT
