@<TRIPOS>MOLECULE
MOL
  192   187     1     0     0
SMALL
resp


@<TRIPOS>ATOM
      1 C1          9.1600    1.5120    0.9430 c3        1 MOL     -0.581367
      2 C2          8.0390    0.8270    0.2100 c         1 MOL      0.931359
      3 O1          7.0520    0.5250    0.8660 o         1 MOL     -0.749424
      4 H1          9.2460    2.5410    0.5940 hc        1 MOL      0.140148
      5 H2          8.9510    1.5080    2.0130 hc        1 MOL      0.140148
      6 H3         10.0950    0.9850    0.7540 hc        1 MOL      0.140148
      7 N1          8.2120    0.3800   -1.0170 n         1 MOL     -0.762239
      8 C3          7.1250   -0.1960   -1.9000 c3        1 MOL      0.013949
      9 C4          6.6020   -1.6220   -1.5430 c         1 MOL      0.566848
     10 O2          6.0260   -2.2960   -2.4530 o         1 MOL     -0.430564
     11 C5          7.6120   -0.0170   -3.3880 c3        1 MOL     -0.164115
     12 C6          8.8380   -0.8440   -3.9250 c         1 MOL      0.615018
     13 O3          9.0010   -0.8990   -5.1560 o         1 MOL     -0.626776
     14 O4          9.4280   -1.6720   -3.2420 o         1 MOL     -0.626776
     15 H4          9.0200    0.7990   -1.4530 hn        1 MOL      0.353791
     16 H5          6.3060    0.5110   -1.7680 h1        1 MOL      0.102660
     17 H6          7.8450    1.0260   -3.5910 hc        1 MOL      0.064626
     18 H7          6.7400   -0.1960   -4.0220 hc        1 MOL      0.064626
     19 N2          6.6800   -2.0050   -0.2900 n         1 MOL     -0.432569
     20 C7          6.2630   -3.3080    0.1470 c3        1 MOL     -0.085993
     21 C8          4.7070   -3.5110   -0.0090 c         1 MOL      0.382785
     22 O5          4.2660   -4.6210   -0.3520 o         1 MOL     -0.503711
     23 C9          6.7520   -3.4600    1.6520 c3        1 MOL      0.123794
     24 C10         8.2630   -3.4960    1.9600 c3        1 MOL     -0.023989
     25 C11         8.6580   -3.5530    3.3960 c3        1 MOL     -0.077433
     26 C12        10.2390   -3.5440    3.5590 c3        1 MOL     -0.024898
     27 N3         10.6210   -3.2220    4.9740 n4        1 MOL     -0.330982
     28 H8          6.9730   -1.3290    0.3950 hn        1 MOL      0.320191
     29 H9          6.7900   -4.1120   -0.3760 h1        1 MOL      0.138306
     30 H10         6.3260   -4.3890    2.0300 hc        1 MOL     -0.007026
     31 H11         6.1900   -2.8090    2.3220 hc        1 MOL     -0.007026
     32 H12         8.7360   -2.5920    1.5940 hc        1 MOL      0.025901
     33 H13         8.6120   -4.3580    1.3810 hc        1 MOL      0.025901
     34 H14         8.3300   -4.5330    3.7460 hc        1 MOL      0.046136
     35 H15         8.0660   -2.7860    3.8870 hc        1 MOL      0.046136
     36 H16        10.6440   -2.7440    2.9380 hx        1 MOL      0.119611
     37 H17        10.5390   -4.5470    3.2540 hx        1 MOL      0.119611
     38 H18        11.5850   -2.9310    5.0640 hn        1 MOL      0.322115
     39 H19        10.1600   -2.3730    5.2650 hn        1 MOL      0.322115
     40 H20        10.3600   -3.9580    5.6040 hn        1 MOL      0.322115
     41 N4          3.8240   -2.6160    0.4650 n         1 MOL     -0.292139
     42 C13         4.0000   -1.3030    1.1580 c3        1 MOL      0.074144
     43 C14         3.9150   -0.2100   -0.0010 c         1 MOL      0.232588
     44 O6          3.7190   -0.4730   -1.1850 o         1 MOL     -0.380322
     45 C15         2.8540   -1.1060    2.1530 c3        1 MOL     -0.347235
     46 C16         1.4970   -1.5900    1.6820 c         1 MOL      0.818108
     47 O7          0.9160   -0.8640    0.8410 o         1 MOL     -0.701799
     48 O8          1.0030   -2.6570    2.1370 o         1 MOL     -0.701799
     49 H21         2.8860   -3.0000    0.3730 hn        1 MOL      0.329508
     50 H22         4.9780   -1.2130    1.6160 h1        1 MOL      0.121733
     51 H23         2.7480   -0.0480    2.3800 hc        1 MOL      0.051983
     52 H24         3.1060   -1.6400    3.0720 hc        1 MOL      0.051983
     53 N5          3.9920    1.0610    0.3940 n         1 MOL     -0.269787
     54 C17         3.9770    2.2300   -0.4230 c3        1 MOL     -0.074336
     55 C18         2.6660    2.7560   -0.9350 c         1 MOL      0.239672
     56 O9          1.5680    2.2530   -0.5310 o         1 MOL     -0.242443
     57 H25         4.2200    1.2850    1.3570 hn        1 MOL      0.295629
     58 H26         4.5450    1.9730   -1.3230 h1        1 MOL      0.099658
     59 H27         4.5980    2.9060    0.1720 h1        1 MOL      0.099658
     60 N6          2.6920    3.7720   -1.8210 n         1 MOL     -0.242250
     61 C19         1.5610    4.4330   -2.4370 c3        1 MOL      0.187043
     62 C20         1.9850    5.8870   -2.8140 c         1 MOL      0.338583
     63 O10         3.1720    6.2880   -2.9730 o         1 MOL     -0.500038
     64 C21         1.2660    3.6690   -3.7830 c3        1 MOL     -0.223944
     65 C22         0.8560    2.1950   -3.6820 c         1 MOL      0.567811
     66 O11        -0.1700    1.8130   -2.9790 o         1 MOL     -0.623350
     67 O12         1.6100    1.3220   -4.1820 o         1 MOL     -0.623350
     68 H28         3.5780    4.2140   -2.0620 hn        1 MOL      0.224528
     69 H29         0.6860    4.2920   -1.8050 h1        1 MOL     -0.011048
     70 H30         2.1680    3.5870   -4.3930 hc        1 MOL      0.082479
     71 H31         0.5330    4.2770   -4.3120 hc        1 MOL      0.082479
     72 N7          1.0780    6.8720   -2.9940 n         1 MOL     -0.318043
     73 C23        -0.3590    6.8350   -2.6320 c3        1 MOL     -0.246147
     74 C24        -0.6620    6.1880   -1.2440 c         1 MOL      0.775420
     75 O13        -0.0150    6.4000   -0.2830 o         1 MOL     -0.533803
     76 H32         1.4990    7.7700   -3.1740 hn        1 MOL      0.308947
     77 H33        -0.8810    6.2610   -3.4010 h1        1 MOL      0.117371
     78 H34        -0.7610    7.8350   -2.4920 h1        1 MOL      0.117371
     79 N8         -1.7890    5.3950   -1.1900 n         1 MOL     -0.677089
     80 C25        -2.3560    5.0030    0.1700 c3        1 MOL      0.012943
     81 C26        -1.6330    3.7240    0.7460 c         1 MOL      0.905667
     82 O14        -1.1690    2.8280   -0.0150 o         1 MOL     -0.741478
     83 C27        -3.8840    4.8410    0.2010 c3        1 MOL      0.545518
     84 C28        -4.4410    4.0110   -0.8960 c3        1 MOL     -0.310747
     85 O15        -4.4580    6.1290    0.2170 oh        1 MOL     -0.625261
     86 H35        -2.3840    5.2170   -1.9920 hn        1 MOL      0.320669
     87 H36        -2.1710    5.8340    0.8530 h1        1 MOL      0.022524
     88 H37        -4.0660    4.3720    1.1650 h1        1 MOL     -0.108351
     89 H38        -4.5360    6.3540    1.1480 ho        1 MOL      0.366806
     90 H39        -5.5150    4.1220   -0.7240 hc        1 MOL      0.079525
     91 H40        -4.1740    4.4260   -1.8630 hc        1 MOL      0.079525
     92 H41        -3.9940    3.0310   -0.7960 hc        1 MOL      0.079525
     93 N9         -1.5780    3.6260    2.0770 n         1 MOL     -0.824251
     94 C29        -0.8360    2.6360    2.9300 c3        1 MOL      0.208810
     95 C30        -1.4710    1.2660    2.7460 c         1 MOL      0.816238
     96 O16        -1.3870    0.6580    1.7100 o         1 MOL     -0.572286
     97 C31         0.7260    2.6260    2.8170 c3        1 MOL      0.046872
     98 C32         1.4650    3.9810    2.6970 c3        1 MOL      0.043031
     99 C33         1.2300    1.7370    3.9410 c3        1 MOL     -0.460344
    100 C34         1.2660    4.9380    3.8580 c3        1 MOL     -0.144787
    101 H42        -2.1130    4.3100    2.5970 hn        1 MOL      0.334543
    102 H43        -1.1180    2.9860    3.9210 h1        1 MOL      0.037399
    103 H44         0.9470    2.1040    1.8810 hc        1 MOL     -0.074732
    104 H45         1.1530    4.4410    1.7530 hc        1 MOL      0.033389
    105 H46         2.5480    3.9230    2.5630 hc        1 MOL      0.033389
    106 H47         1.0700    2.2560    4.8900 hc        1 MOL      0.116725
    107 H48         0.8190    0.7290    3.9850 hc        1 MOL      0.116725
    108 H49         2.3070    1.5850    3.9230 hc        1 MOL      0.116725
    109 H50         1.8760    5.8250    3.7190 hc        1 MOL      0.031842
    110 H51         0.2700    5.3590    3.9380 hc        1 MOL      0.031842
    111 H52         1.4090    4.4690    4.8320 hc        1 MOL      0.031842
    112 N10        -2.1660    0.8460    3.8270 n         1 MOL     -0.671054
    113 C35        -2.5550   -0.5780    3.9880 c3        1 MOL     -0.307123
    114 C36        -3.9790   -0.9300    3.4240 c         1 MOL      0.518256
    115 O17        -4.3740   -2.0180    3.3920 o         1 MOL     -0.507664
    116 C37        -2.3430   -0.9730    5.4050 c3        1 MOL      0.618872
    117 C38        -3.4460   -0.3390    6.3140 c3        1 MOL     -0.279426
    118 O18        -1.1100   -0.6730    6.0180 oh        1 MOL     -0.660284
    119 H53        -1.9710    1.3710    4.6750 hn        1 MOL      0.310151
    120 H54        -1.9190   -1.2390    3.3990 h1        1 MOL      0.150349
    121 H55        -2.3550   -2.0600    5.5040 h1        1 MOL     -0.037634
    122 H56        -0.4350   -1.1450    5.5210 ho        1 MOL      0.402491
    123 H57        -4.3250   -0.8110    5.8850 hc        1 MOL      0.068465
    124 H58        -3.3980   -0.4570    7.3900 hc        1 MOL      0.068465
    125 H59        -3.6190    0.7010    6.0330 hc        1 MOL      0.068465
    126 N11        -4.7090    0.0420    2.8800 n         1 MOL     -0.054484
    127 C39        -5.9970   -0.0470    2.2310 c3        1 MOL     -0.640858
    128 C40        -5.9110   -0.7230    0.8160 c         1 MOL      0.613185
    129 O19        -5.2160   -0.2790   -0.0440 o         1 MOL     -0.450279
    130 C41        -6.7870    1.2840    2.2670 c3        1 MOL      0.480733
    131 C42        -8.0010    1.2510    1.4210 c3        1 MOL     -0.489885
    132 O20        -7.2540    1.6250    3.4680 oh        1 MOL     -0.589290
    133 H60        -4.3240    0.9520    3.0910 hn        1 MOL      0.194423
    134 H61        -6.5450   -0.7430    2.8710 h1        1 MOL      0.197221
    135 H62        -6.1310    2.0940    1.9180 h1        1 MOL      0.075259
    136 H63        -7.7160    0.8120    3.6810 ho        1 MOL      0.376543
    137 H64        -8.6260    2.0820    1.7530 hc        1 MOL      0.124645
    138 H65        -7.8050    1.5120    0.3890 hc        1 MOL      0.124645
    139 H66        -8.5660    0.3240    1.4300 hc        1 MOL      0.124645
    140 N12        -6.7250   -1.7610    0.5780 n         1 MOL     -0.459149
    141 C43        -6.7750   -2.6000   -0.6910 c3        1 MOL      0.035885
    142 C44        -5.4480   -2.8590   -1.4420 c         1 MOL      0.535548
    143 O21        -5.3520   -2.5790   -2.6610 o         1 MOL     -0.491263
    144 C45        -7.8860   -1.9090   -1.5850 c3        1 MOL     -0.214825
    145 C46        -9.3170   -2.0430   -1.0850 c3        1 MOL      0.032148
    146 C47       -10.3690   -1.9670   -2.1450 c3        1 MOL     -0.026594
    147 C48       -11.7240   -2.0480   -1.4670 c3        1 MOL      0.050912
    148 N13       -12.8000   -1.8390   -2.4750 n4        1 MOL     -0.134175
    149 H67        -7.3250   -1.9350    1.3740 hn        1 MOL      0.257916
    150 H68        -7.1500   -3.5910   -0.4340 h1        1 MOL      0.080463
    151 H69        -7.7930   -2.4620   -2.5120 hc        1 MOL      0.089428
    152 H70        -7.5300   -0.8940   -1.7710 hc        1 MOL      0.089428
    153 H71        -9.4220   -1.2230   -0.3730 hc        1 MOL      0.028394
    154 H72        -9.4180   -3.0220   -0.6070 hc        1 MOL      0.028394
    155 H73       -10.3230   -2.7280   -2.9360 hc        1 MOL      0.040094
    156 H74       -10.1620   -1.0260   -2.6470 hc        1 MOL      0.040094
    157 H75       -11.7560   -1.3100   -0.6630 hx        1 MOL      0.045111
    158 H76       -11.8730   -2.9350   -0.8650 hx        1 MOL      0.045111
    159 H77       -12.7620   -2.5490   -3.1890 hn        1 MOL      0.158886
    160 H78       -13.7250   -1.8390   -2.0690 hn        1 MOL      0.158886
    161 H79       -12.7020   -0.9340   -2.9130 hn        1 MOL      0.158886
    162 N14        -4.3670   -3.2370   -0.7150 n         1 MOL     -0.510873
    163 C49        -2.9910   -3.5360   -1.2670 c3        1 MOL      0.212431
    164 C50        -1.7930   -2.9650   -0.4810 c         1 MOL      0.349787
    165 O22        -1.2240   -1.9650   -0.9440 o         1 MOL     -0.585496
    166 C51        -2.7790   -5.0080   -1.7040 c3        1 MOL     -0.137928
    167 C52        -3.6600   -5.3450   -2.9210 c3        1 MOL     -0.283859
    168 C53        -3.2390   -6.6790   -3.5970 c         1 MOL      0.735212
    169 O23        -3.6090   -7.7620   -3.0070 o         1 MOL     -0.644159
    170 O24        -2.6490   -6.7230   -4.6760 o         1 MOL     -0.644159
    171 H80        -4.4710   -3.2290    0.2830 hn        1 MOL      0.294092
    172 H81        -2.9870   -3.0580   -2.2500 h1        1 MOL      0.164680
    173 H82        -3.1190   -5.6760   -0.9120 hc        1 MOL      0.078149
    174 H83        -1.7460   -5.2780   -1.9130 hc        1 MOL      0.078149
    175 H84        -3.5320   -4.5190   -3.6310 hc        1 MOL      0.053610
    176 H85        -4.7300   -5.2930   -2.7190 hc        1 MOL      0.053610
    177 N15        -1.4940   -3.3140    0.7520 n         1 MOL     -0.186146
    178 C54        -1.8110   -4.5330    1.4200 c3        1 MOL      0.008651
    179 H86        -2.6660   -4.3750    2.0780 h1        1 MOL      0.014836
    180 H87        -2.0580   -5.2980    0.6830 h1        1 MOL      0.014836
    181 H88        -0.9540   -4.8590    2.0100 h1        1 MOL      0.014836
    182 H89        -0.6960   -2.8340    1.1430 hn        1 MOL      0.262334
    183 Ca1        -0.4060    0.4350   -0.8550 Ca        1 MOL      1.639253
    184 O25        -3.0510    0.7810   -1.2320 oh        1 MOL     -0.863486
    185 H90        -3.3080    0.3480   -2.0490 ho        1 MOL      0.409907
    186 H91        -3.8110    0.6540   -0.6550 ho        1 MOL      0.409907
    187 O26        -2.0030   -0.4080   -3.3950 oh        1 MOL     -0.863486
    188 H92        -2.0720   -0.8920   -4.2210 ho        1 MOL      0.409907
    189 H93        -1.4060    0.3120   -3.5810 ho        1 MOL      0.409907
    190 O27         1.4280   -0.7740   -2.2570 oh        1 MOL     -0.863486
    191 H94         2.3370   -0.7610   -1.9520 ho        1 MOL      0.409907
    192 H95         1.3690   -0.0400   -2.8640 ho        1 MOL      0.409907
@<TRIPOS>BOND
     1    1    2 1   
     2    1    4 1   
     3    1    5 1   
     4    1    6 1   
     5    2    3 2   
     6    2    7 1   
     7    7    8 1   
     8    7   15 1   
     9    8    9 1   
    10    8   11 1   
    11    8   16 1   
    12    9   10 2   
    13    9   19 1   
    14   11   12 1   
    15   11   17 1   
    16   11   18 1   
    17   12   13 1   
    18   12   14 1   
    19   19   20 1   
    20   19   28 1   
    21   20   21 1   
    22   20   23 1   
    23   20   29 1   
    24   21   22 2   
    25   21   41 1   
    26   23   24 1   
    27   23   30 1   
    28   23   31 1   
    29   24   25 1   
    30   24   32 1   
    31   24   33 1   
    32   25   26 1   
    33   25   34 1   
    34   25   35 1   
    35   26   27 1   
    36   26   36 1   
    37   26   37 1   
    38   27   38 1   
    39   27   39 1   
    40   27   40 1   
    41   41   42 1   
    42   41   49 1   
    43   42   43 1   
    44   42   45 1   
    45   42   50 1   
    46   43   44 2   
    47   43   53 1   
    48   45   46 1   
    49   45   51 1   
    50   45   52 1   
    51   46   47 1   
    52   46   48 1   
    53   53   54 1   
    54   53   57 1   
    55   54   55 1   
    56   54   58 1   
    57   54   59 1   
    58   55   56 2   
    59   55   60 1   
    60   60   61 1   
    61   60   68 1   
    62   61   62 1   
    63   61   64 1   
    64   61   69 1   
    65   62   63 2   
    66   62   72 1   
    67   64   65 1   
    68   64   70 1   
    69   64   71 1   
    70   65   66 1   
    71   65   67 1   
    72   72   73 1   
    73   72   76 1   
    74   73   74 1   
    75   73   77 1   
    76   73   78 1   
    77   74   75 2   
    78   74   79 1   
    79   79   80 1   
    80   79   86 1   
    81   80   81 1   
    82   80   83 1   
    83   80   87 1   
    84   81   82 2   
    85   81   93 1   
    86   83   84 1   
    87   83   85 1   
    88   83   88 1   
    89   84   90 1   
    90   84   91 1   
    91   84   92 1   
    92   85   89 1   
    93   93   94 1   
    94   93  101 1   
    95   94   95 1   
    96   94   97 1   
    97   94  102 1   
    98   95   96 2   
    99   95  112 1   
   100   97   98 1   
   101   97   99 1   
   102   97  103 1   
   103   98  100 1   
   104   98  104 1   
   105   98  105 1   
   106   99  106 1   
   107   99  107 1   
   108   99  108 1   
   109  100  109 1   
   110  100  110 1   
   111  100  111 1   
   112  112  113 1   
   113  112  119 1   
   114  113  114 1   
   115  113  116 1   
   116  113  120 1   
   117  114  115 2   
   118  114  126 1   
   119  116  117 1   
   120  116  118 1   
   121  116  121 1   
   122  117  123 1   
   123  117  124 1   
   124  117  125 1   
   125  118  122 1   
   126  126  127 1   
   127  126  133 1   
   128  127  128 1   
   129  127  130 1   
   130  127  134 1   
   131  128  129 2   
   132  128  140 1   
   133  130  131 1   
   134  130  132 1   
   135  130  135 1   
   136  131  137 1   
   137  131  138 1   
   138  131  139 1   
   139  132  136 1   
   140  140  141 1   
   141  140  149 1   
   142  141  142 1   
   143  141  144 1   
   144  141  150 1   
   145  142  143 2   
   146  142  162 1   
   147  144  145 1   
   148  144  151 1   
   149  144  152 1   
   150  145  146 1   
   151  145  153 1   
   152  145  154 1   
   153  146  147 1   
   154  146  155 1   
   155  146  156 1   
   156  147  148 1   
   157  147  157 1   
   158  147  158 1   
   159  148  159 1   
   160  148  160 1   
   161  148  161 1   
   162  162  163 1   
   163  162  171 1   
   164  163  164 1   
   165  163  166 1   
   166  163  172 1   
   167  164  165 2   
   168  164  177 1   
   169  166  167 1   
   170  166  173 1   
   171  166  174 1   
   172  167  168 1   
   173  167  175 1   
   174  167  176 1   
   175  168  169 1   
   176  168  170 1   
   177  177  178 1   
   178  177  182 1   
   179  178  179 1   
   180  178  180 1   
   181  178  181 1   
   182  184  185 1   
   183  184  186 1   
   184  187  188 1   
   185  187  189 1   
   186  190  191 1   
   187  190  192 1   
@<TRIPOS>SUBSTRUCTURE
     1 MOL         1 TEMP              0 ****  ****    0 ROOT
