@<TRIPOS>MOLECULE
MOL
  192   187     1     0     0
SMALL
resp


@<TRIPOS>ATOM
      1 C1         12.3240    4.1290   -2.8970 c3        1 MOL     -0.391972
      2 C2         12.0680    3.1120   -1.7550 c         1 MOL      0.657431
      3 O1         12.5750    1.9720   -1.7530 o         1 MOL     -0.627010
      4 H1         12.7850    5.0270   -2.4860 hc        1 MOL      0.104883
      5 H2         12.9890    3.6850   -3.6380 hc        1 MOL      0.104883
      6 H3         11.3770    4.3920   -3.3690 hc        1 MOL      0.104883
      7 N1         11.2940    3.4460   -0.7800 n         1 MOL     -0.251320
      8 C3         10.9750    2.4450    0.2650 c3        1 MOL     -0.191858
      9 C4          9.7400    1.6360   -0.0750 c         1 MOL      0.650216
     10 O2          8.8450    2.2460   -0.7200 o         1 MOL     -0.733402
     11 C5         10.8140    3.1420    1.6130 c3        1 MOL     -0.039212
     12 C6         10.1000    4.5520    1.6780 c         1 MOL      0.736636
     13 O3         10.3090    5.2840    2.6630 o         1 MOL     -0.680451
     14 O4          9.3690    4.8050    0.7010 o         1 MOL     -0.680451
     15 H4         10.8910    4.3760   -0.7580 hn        1 MOL      0.124730
     16 H5         11.7100    1.6390    0.2510 h1        1 MOL      0.113102
     17 H6         11.8470    3.2200    1.9460 hc        1 MOL      0.032750
     18 H7         10.4570    2.4210    2.3580 hc        1 MOL      0.032750
     19 N2          9.5860    0.3490    0.3140 n         1 MOL     -0.401089
     20 C7          8.5050   -0.5630   -0.0130 c3        1 MOL      0.169988
     21 C8          7.5440   -0.6440    1.0910 c         1 MOL      0.588269
     22 O5          7.7890   -1.2260    2.1160 o         1 MOL     -0.523202
     23 C9          9.1090   -1.9380   -0.3830 c3        1 MOL     -0.573812
     24 C10         8.3000   -3.0020   -1.1340 c3        1 MOL      0.305588
     25 C11         9.0350   -4.2280   -1.6210 c3        1 MOL     -0.191256
     26 C12         8.1790   -5.0950   -2.5060 c3        1 MOL     -0.152153
     27 N3          6.9170   -5.5180   -1.8620 n4        1 MOL     -0.306464
     28 H8         10.2290   -0.0930    0.9510 hn        1 MOL      0.288393
     29 H9          8.0430   -0.1760   -0.9260 h1        1 MOL      0.150780
     30 H10         9.4270   -2.4340    0.5420 hc        1 MOL      0.146693
     31 H11         9.9150   -1.6460   -1.0440 hc        1 MOL      0.146693
     32 H12         7.7710   -2.5110   -1.9550 hc        1 MOL     -0.028738
     33 H13         7.5170   -3.4810   -0.5550 hc        1 MOL     -0.028738
     34 H14         9.2510   -4.8520   -0.7590 hc        1 MOL      0.112103
     35 H15         9.8620   -4.0390   -2.3090 hc        1 MOL      0.112103
     36 H16         8.7200   -6.0150   -2.7290 hx        1 MOL      0.133907
     37 H17         7.9320   -4.4640   -3.3550 hx        1 MOL      0.133907
     38 H18         6.4120   -6.1890   -2.4220 hn        1 MOL      0.284518
     39 H19         7.2560   -6.0430   -1.0720 hn        1 MOL      0.284518
     40 H20         6.2820   -4.7690   -1.6080 hn        1 MOL      0.284518
     41 N4          6.3610   -0.1300    0.7200 n         1 MOL     -0.489756
     42 C13         5.1360   -0.0070    1.5350 c3        1 MOL      0.107928
     43 C14         3.9250    0.0610    0.5960 c         1 MOL      0.524320
     44 O6          4.0460    0.2920   -0.5850 o         1 MOL     -0.566515
     45 C15         5.2500    1.2060    2.5250 c3        1 MOL     -0.363224
     46 C16         5.8150    2.4670    1.9130 c         1 MOL      0.827283
     47 O7          5.0800    3.1150    1.1550 o         1 MOL     -0.752798
     48 O8          7.0520    2.7320    2.0100 o         1 MOL     -0.752798
     49 H21         6.2800    0.1630   -0.2360 hn        1 MOL      0.167357
     50 H22         5.0810   -0.9220    2.1050 h1        1 MOL      0.100568
     51 H23         5.9640    0.8820    3.2680 hc        1 MOL      0.110307
     52 H24         4.3050    1.3670    3.0470 hc        1 MOL      0.110307
     53 N5          2.6770   -0.3290    0.9810 n         1 MOL     -0.337412
     54 C17         2.1060   -0.7700    2.2600 c3        1 MOL     -0.199677
     55 C18         2.0930   -2.2830    2.3930 c         1 MOL      0.700795
     56 O9          2.4450   -3.0180    1.5400 o         1 MOL     -0.617691
     57 H25         1.9390   -0.3740    0.2990 hn        1 MOL      0.267674
     58 H26         1.0490   -0.5170    2.3610 h1        1 MOL      0.103511
     59 H27         2.6450   -0.3950    3.1260 h1        1 MOL      0.103511
     60 N6          1.6960   -2.7330    3.5590 n         1 MOL     -0.528321
     61 C19         1.9500   -4.1000    3.9370 c3        1 MOL      0.208309
     62 C20         1.1310   -5.0910    3.1410 c         1 MOL      0.410996
     63 O10         1.5630   -6.2060    2.9320 o         1 MOL     -0.567745
     64 C21         1.8070   -4.3730    5.4770 c3        1 MOL     -0.392587
     65 C22         0.5470   -3.9990    6.1430 c         1 MOL      0.786380
     66 O11         0.3900   -4.2170    7.3890 o         1 MOL     -0.685585
     67 O12        -0.3830   -3.5450    5.4930 o         1 MOL     -0.685585
     68 H28         1.4730   -2.1180    4.3180 hn        1 MOL      0.283858
     69 H29         2.9970   -4.3540    3.7990 h1        1 MOL      0.037110
     70 H30         2.6030   -3.7580    5.9030 hc        1 MOL      0.103362
     71 H31         2.0260   -5.4240    5.6740 hc        1 MOL      0.103362
     72 N7          0.0860   -4.7340    2.4180 n         1 MOL     -0.068380
     73 C23        -0.6200   -5.5520    1.5060 c3        1 MOL      0.005358
     74 C24        -0.5060   -5.1420    0.0340 c         1 MOL      0.512799
     75 O13        -1.0620   -5.8090   -0.8250 o         1 MOL     -0.560762
     76 H32        -0.3930   -3.8770    2.6800 hn        1 MOL      0.164349
     77 H33        -1.6640   -5.5980    1.8000 h1        1 MOL      0.045080
     78 H34        -0.1770   -6.5550    1.4610 h1        1 MOL      0.045080
     79 N8          0.1010   -3.9710   -0.2690 n         1 MOL     -0.304787
     80 C25         0.2950   -3.4500   -1.6030 c3        1 MOL      0.013392
     81 C26         0.1510   -1.9890   -1.6620 c         1 MOL      0.257283
     82 O14         0.4330   -1.2180   -0.7370 o         1 MOL     -0.409462
     83 C27         1.7160   -3.7650   -1.9980 c3        1 MOL      0.408773
     84 C28         2.0270   -5.2060   -2.4250 c3        1 MOL     -0.408064
     85 O15         2.1590   -3.0190   -3.1640 oh        1 MOL     -0.661170
     86 H35         0.5360   -3.5080    0.5210 hn        1 MOL      0.157374
     87 H36        -0.4870   -3.8950   -2.2270 h1        1 MOL      0.050658
     88 H37         2.4040   -3.5360   -1.1860 h1        1 MOL      0.023405
     89 H38         3.0780   -3.2290   -3.3150 ho        1 MOL      0.385058
     90 H39         1.3600   -5.8780   -1.8930 hc        1 MOL      0.093715
     91 H40         1.8970   -5.4290   -3.4810 hc        1 MOL      0.093715
     92 H41         3.0820   -5.3710   -2.1970 hc        1 MOL      0.093715
     93 N9         -0.5100   -1.5820   -2.7350 n         1 MOL     -0.002055
     94 C29        -0.8650   -0.1950   -3.0920 c3        1 MOL     -0.154898
     95 C30        -2.2150    0.1640   -2.4240 c         1 MOL      0.469020
     96 O16        -2.3670    1.3220   -1.9340 o         1 MOL     -0.516286
     97 C31        -0.8780   -0.0470   -4.6080 c3        1 MOL      0.246432
     98 C32         0.4740   -0.5100   -5.2170 c3        1 MOL     -0.055787
     99 C33        -1.1030    1.4430   -4.9840 c3        1 MOL     -0.275110
    100 C34         1.7760   -0.0440   -4.4970 c3        1 MOL     -0.051140
    101 H42        -0.7140   -2.1960   -3.5050 hn        1 MOL      0.228560
    102 H43        -0.1280    0.4540   -2.6130 h1        1 MOL      0.094389
    103 H44        -1.7260   -0.5460   -5.0880 hc        1 MOL     -0.016231
    104 H45         0.4320   -0.2420   -6.2760 hc        1 MOL     -0.008051
    105 H46         0.3550   -1.5880   -5.1170 hc        1 MOL     -0.008051
    106 H47        -2.0640    1.8390   -4.6650 hc        1 MOL      0.072441
    107 H48        -0.3330    2.0630   -4.5210 hc        1 MOL      0.072441
    108 H49        -1.0470    1.5530   -6.0660 hc        1 MOL      0.072441
    109 H50         1.8210    1.0420   -4.5780 hc        1 MOL      0.011754
    110 H51         1.8470   -0.3560   -3.4470 hc        1 MOL      0.011754
    111 H52         2.6770   -0.3620   -5.0200 hc        1 MOL      0.011754
    112 N10        -3.1130   -0.8350   -2.3090 n         1 MOL     -0.399866
    113 C35        -4.2570   -0.9000   -1.3230 c3        1 MOL      0.033692
    114 C36        -5.2990   -1.7640   -2.0200 c         1 MOL      0.596647
    115 O17        -5.0420   -2.6410   -2.7910 o         1 MOL     -0.507903
    116 C37        -3.9000   -1.4910    0.0210 c3        1 MOL      0.268648
    117 C38        -3.3380   -2.9100   -0.0440 c3        1 MOL     -0.297862
    118 O18        -2.9990   -0.6550    0.7100 oh        1 MOL     -0.576539
    119 H53        -2.8010   -1.6990   -2.7310 hn        1 MOL      0.154601
    120 H54        -4.7030    0.0870   -1.2300 h1        1 MOL      0.052908
    121 H55        -4.8550   -1.4700    0.5470 h1        1 MOL      0.010422
    122 H56        -3.2690    0.2640    0.6500 ho        1 MOL      0.398187
    123 H57        -3.3050   -3.2450    0.9920 hc        1 MOL      0.097324
    124 H58        -4.0570   -3.5090   -0.5910 hc        1 MOL      0.097324
    125 H59        -2.3320   -2.8520   -0.4730 hc        1 MOL      0.097324
    126 N11        -6.5260   -1.5300   -1.5570 n         1 MOL     -0.506711
    127 C39        -7.8450   -2.1380   -2.0290 c3        1 MOL      0.058625
    128 C40        -8.8880   -1.0070   -2.2470 c         1 MOL      0.538452
    129 O19        -9.2540   -0.8070   -3.4140 o         1 MOL     -0.532679
    130 C41        -8.3320   -3.1640   -1.0540 c3        1 MOL      0.193205
    131 C42        -9.7270   -3.6400   -1.3800 c3        1 MOL     -0.406033
    132 O20        -8.3840   -2.6250    0.2490 oh        1 MOL     -0.610789
    133 H60        -6.5810   -0.8720   -0.8000 hn        1 MOL      0.255850
    134 H61        -7.5750   -2.6550   -2.9450 h1        1 MOL      0.094852
    135 H62        -7.7150   -4.0550   -1.1600 h1        1 MOL      0.072505
    136 H63        -8.4060   -3.4010    0.8130 ho        1 MOL      0.415454
    137 H64        -9.7740   -4.0270   -2.4080 hc        1 MOL      0.110719
    138 H65        -9.9680   -4.4790   -0.7300 hc        1 MOL      0.110719
    139 H66       -10.4760   -2.8510   -1.2960 hc        1 MOL      0.110719
    140 N12        -9.1390   -0.2530   -1.1620 n         1 MOL     -0.354452
    141 C43       -10.0260    0.9060   -1.0130 c3        1 MOL     -0.035014
    142 C44        -9.5990    1.7880    0.1570 c         1 MOL      0.605931
    143 O21        -8.8740    1.3150    0.9940 o         1 MOL     -0.486161
    144 C45       -11.4940    0.5430   -0.7820 c3        1 MOL     -0.334485
    145 C46       -11.8890   -0.2250    0.4740 c3        1 MOL     -0.034906
    146 C47       -13.3940   -0.2770    0.6950 c3        1 MOL      0.104645
    147 C48       -13.7350   -1.2960    1.7740 c3        1 MOL     -0.004097
    148 N13       -15.1440   -1.5540    1.7140 n4        1 MOL     -0.155346
    149 H67        -8.8070   -0.6130   -0.2740 hn        1 MOL      0.256314
    150 H68       -10.0010    1.5090   -1.9200 h1        1 MOL      0.108387
    151 H69       -11.7660   -0.0960   -1.6150 hc        1 MOL      0.117752
    152 H70       -12.0840    1.4550   -0.8970 hc        1 MOL      0.117752
    153 H71       -11.4530    0.2380    1.3640 hc        1 MOL      0.053132
    154 H72       -11.5260   -1.2610    0.4000 hc        1 MOL      0.053132
    155 H73       -13.8450   -0.5510   -0.2590 hc        1 MOL      0.001358
    156 H74       -13.8200    0.7110    0.9010 hc        1 MOL      0.001358
    157 H75       -13.5330   -0.8190    2.7400 hx        1 MOL      0.069857
    158 H76       -13.1450   -2.2010    1.6370 hx        1 MOL      0.069857
    159 H77       -15.5810   -0.6610    1.5260 hn        1 MOL      0.211350
    160 H78       -15.3690   -2.2140    0.9890 hn        1 MOL      0.211350
    161 H79       -15.4360   -1.9100    2.6200 hn        1 MOL      0.211350
    162 N14        -9.9720    3.0730    0.1610 n         1 MOL     -0.570605
    163 C49        -9.3530    3.9850    1.0870 c3        1 MOL      0.346470
    164 C50        -7.7820    4.0460    1.0780 c         1 MOL      0.226838
    165 O22        -7.2820    4.0200    2.1830 o         1 MOL     -0.500317
    166 C51       -10.0310    5.4080    0.9040 c3        1 MOL     -0.208642
    167 C52        -9.4670    6.4590    1.8380 c3        1 MOL     -0.107515
    168 C53       -10.0660    7.8520    1.5740 c         1 MOL      0.621666
    169 O23       -10.4080    8.1800    0.4010 o         1 MOL     -0.611188
    170 O24       -10.0120    8.7900    2.4290 o         1 MOL     -0.611188
    171 H80       -10.4630    3.4950   -0.6070 hn        1 MOL      0.297769
    172 H81        -9.6310    3.6070    2.0670 h1        1 MOL      0.023656
    173 H82       -11.0930    5.2000    0.9800 hc        1 MOL      0.051349
    174 H83        -9.8770    5.7420   -0.1210 hc        1 MOL      0.051349
    175 H84        -8.3890    6.5420    1.7540 hc        1 MOL      0.055731
    176 H85        -9.6160    6.2140    2.8890 hc        1 MOL      0.055731
    177 N15        -6.9860    4.1670    0.0140 n         1 MOL     -0.204383
    178 C54        -7.2430    4.2340   -1.4240 c3        1 MOL     -0.099591
    179 H86        -7.8590    3.3860   -1.7220 h1        1 MOL      0.068043
    180 H87        -7.7650    5.1620   -1.6570 h1        1 MOL      0.068043
    181 H88        -6.2960    4.2040   -1.9640 h1        1 MOL      0.068043
    182 H89        -6.0360    4.3530    0.2950 hn        1 MOL      0.266855
    183 Ca1         7.0770    4.1310   -0.3550 Ca        1 MOL      1.782710
    184 O25         4.7700    5.4920   -0.9400 oh        1 MOL     -0.901834
    185 H90         4.1400    6.1080   -0.5760 ho        1 MOL      0.442494
    186 H91         4.2350    4.7470   -1.2250 ho        1 MOL      0.442494
    187 O26         6.2930    1.8890   -1.5390 oh        1 MOL     -0.901834
    188 H92         5.3750    1.6400   -1.6170 ho        1 MOL      0.442494
    189 H93         6.6850    1.6680   -2.3860 ho        1 MOL      0.442494
    190 O27         6.5910    5.8820    1.4490 oh        1 MOL     -0.901834
    191 H94         5.7120    5.9570    1.8080 ho        1 MOL      0.442494
    192 H95         7.0700    6.6200    1.8160 ho        1 MOL      0.442494
@<TRIPOS>BOND
     1    1    2 1   
     2    1    4 1   
     3    1    5 1   
     4    1    6 1   
     5    2    3 2   
     6    2    7 1   
     7    7    8 1   
     8    7   15 1   
     9    8    9 1   
    10    8   11 1   
    11    8   16 1   
    12    9   10 2   
    13    9   19 1   
    14   11   12 1   
    15   11   17 1   
    16   11   18 1   
    17   12   13 1   
    18   12   14 1   
    19   19   20 1   
    20   19   28 1   
    21   20   21 1   
    22   20   23 1   
    23   20   29 1   
    24   21   22 2   
    25   21   41 1   
    26   23   24 1   
    27   23   30 1   
    28   23   31 1   
    29   24   25 1   
    30   24   32 1   
    31   24   33 1   
    32   25   26 1   
    33   25   34 1   
    34   25   35 1   
    35   26   27 1   
    36   26   36 1   
    37   26   37 1   
    38   27   38 1   
    39   27   39 1   
    40   27   40 1   
    41   41   42 1   
    42   41   49 1   
    43   42   43 1   
    44   42   45 1   
    45   42   50 1   
    46   43   44 2   
    47   43   53 1   
    48   45   46 1   
    49   45   51 1   
    50   45   52 1   
    51   46   47 1   
    52   46   48 1   
    53   53   54 1   
    54   53   57 1   
    55   54   55 1   
    56   54   58 1   
    57   54   59 1   
    58   55   56 2   
    59   55   60 1   
    60   60   61 1   
    61   60   68 1   
    62   61   62 1   
    63   61   64 1   
    64   61   69 1   
    65   62   63 2   
    66   62   72 1   
    67   64   65 1   
    68   64   70 1   
    69   64   71 1   
    70   65   66 1   
    71   65   67 1   
    72   72   73 1   
    73   72   76 1   
    74   73   74 1   
    75   73   77 1   
    76   73   78 1   
    77   74   75 2   
    78   74   79 1   
    79   79   80 1   
    80   79   86 1   
    81   80   81 1   
    82   80   83 1   
    83   80   87 1   
    84   81   82 2   
    85   81   93 1   
    86   83   84 1   
    87   83   85 1   
    88   83   88 1   
    89   84   90 1   
    90   84   91 1   
    91   84   92 1   
    92   85   89 1   
    93   93   94 1   
    94   93  101 1   
    95   94   95 1   
    96   94   97 1   
    97   94  102 1   
    98   95   96 2   
    99   95  112 1   
   100   97   98 1   
   101   97   99 1   
   102   97  103 1   
   103   98  100 1   
   104   98  104 1   
   105   98  105 1   
   106   99  106 1   
   107   99  107 1   
   108   99  108 1   
   109  100  109 1   
   110  100  110 1   
   111  100  111 1   
   112  112  113 1   
   113  112  119 1   
   114  113  114 1   
   115  113  116 1   
   116  113  120 1   
   117  114  115 2   
   118  114  126 1   
   119  116  117 1   
   120  116  118 1   
   121  116  121 1   
   122  117  123 1   
   123  117  124 1   
   124  117  125 1   
   125  118  122 1   
   126  126  127 1   
   127  126  133 1   
   128  127  128 1   
   129  127  130 1   
   130  127  134 1   
   131  128  129 2   
   132  128  140 1   
   133  130  131 1   
   134  130  132 1   
   135  130  135 1   
   136  131  137 1   
   137  131  138 1   
   138  131  139 1   
   139  132  136 1   
   140  140  141 1   
   141  140  149 1   
   142  141  142 1   
   143  141  144 1   
   144  141  150 1   
   145  142  143 2   
   146  142  162 1   
   147  144  145 1   
   148  144  151 1   
   149  144  152 1   
   150  145  146 1   
   151  145  153 1   
   152  145  154 1   
   153  146  147 1   
   154  146  155 1   
   155  146  156 1   
   156  147  148 1   
   157  147  157 1   
   158  147  158 1   
   159  148  159 1   
   160  148  160 1   
   161  148  161 1   
   162  162  163 1   
   163  162  171 1   
   164  163  164 1   
   165  163  166 1   
   166  163  172 1   
   167  164  165 2   
   168  164  177 1   
   169  166  167 1   
   170  166  173 1   
   171  166  174 1   
   172  167  168 1   
   173  167  175 1   
   174  167  176 1   
   175  168  169 1   
   176  168  170 1   
   177  177  178 1   
   178  177  182 1   
   179  178  179 1   
   180  178  180 1   
   181  178  181 1   
   182  184  185 1   
   183  184  186 1   
   184  187  188 1   
   185  187  189 1   
   186  190  191 1   
   187  190  192 1   
@<TRIPOS>SUBSTRUCTURE
     1 MOL         1 TEMP              0 ****  ****    0 ROOT
