@<TRIPOS>MOLECULE
MOL
  181   177     1     0     0
SMALL
resp


@<TRIPOS>ATOM
      1 C1          6.2860    0.0050    6.7890 c3        1 MOL     -0.360100
      2 C2          5.5970   -0.1320    5.4340 c         1 MOL      0.725626
      3 O1          4.3950   -0.0570    5.2790 o         1 MOL     -0.577942
      4 H1          5.7840    0.7750    7.3760 hc        1 MOL      0.086042
      5 H2          6.2370   -0.9450    7.3210 hc        1 MOL      0.086042
      6 H3          7.3290    0.2850    6.6410 hc        1 MOL      0.086042
      7 N1          6.3000   -0.2940    4.3030 n         1 MOL     -0.468554
      8 C3          7.8010   -0.3070    4.0920 c3        1 MOL     -0.084194
      9 C4          8.2110   -1.5200    3.3070 c         1 MOL      0.645613
     10 O2          7.6020   -2.5680    3.4450 o         1 MOL     -0.505951
     11 C5          8.1860    1.0340    3.3940 c3        1 MOL     -0.145024
     12 C6          7.5940    1.2430    2.0290 c         1 MOL      0.626948
     13 O3          7.0990    2.3350    1.7220 o         1 MOL     -0.663134
     14 O4          7.6780    0.3100    1.1840 o         1 MOL     -0.663134
     15 H4          5.7860   -0.5970    3.4920 hn        1 MOL      0.321938
     16 H5          8.3750   -0.4030    5.0080 h1        1 MOL      0.095342
     17 H6          9.2710    1.1050    3.3390 hc        1 MOL      0.030877
     18 H7          7.7880    1.8380    4.0030 hc        1 MOL      0.030877
     19 N2          9.3350   -1.5010    2.5790 n         1 MOL     -0.683339
     20 C7          9.8850   -2.4850    1.6860 c3        1 MOL      0.427260
     21 C8          8.9060   -3.0630    0.6710 c         1 MOL      0.328136
     22 O5          9.1260   -4.1750    0.1630 o         1 MOL     -0.568220
     23 C9         10.7430   -3.5190    2.5210 c3        1 MOL     -0.361234
     24 H8          9.7850   -0.6030    2.4510 hn        1 MOL      0.330812
     25 H9         10.6270   -2.0050    1.0530 h1        1 MOL     -0.015606
     26 H10        10.0900   -4.2600    3.0010 hc        1 MOL      0.089470
     27 H11        11.3940   -3.9700    1.7850 hc        1 MOL      0.089470
     28 H12        11.3340   -2.9800    3.2600 hc        1 MOL      0.089470
     29 N3          7.8790   -2.3110    0.3310 n         1 MOL      0.131815
     30 C10         6.8160   -2.8290   -0.5960 c3        1 MOL     -0.319364
     31 C11         6.7510   -2.0670   -1.8890 c         1 MOL      0.337383
     32 O6          7.0080   -0.8670   -1.9320 o         1 MOL     -0.496446
     33 C12         5.3920   -2.9210    0.0990 c3        1 MOL     -0.018557
     34 C13         4.9710   -1.6470    0.9180 c         1 MOL      0.687267
     35 O7          4.7290   -1.7240    2.0900 o         1 MOL     -0.665914
     36 O8          4.9640   -0.5520    0.3150 o         1 MOL     -0.665914
     37 H13         7.8030   -1.3480    0.6420 hn        1 MOL     -0.035552
     38 H14         7.1310   -3.8580   -0.7960 h1        1 MOL      0.134799
     39 H15         5.5170   -3.7200    0.8320 hc        1 MOL      0.033548
     40 H16         4.5160   -3.2560   -0.4510 hc        1 MOL      0.033548
     41 N4          6.4210   -2.7420   -3.0040 n         1 MOL     -0.103514
     42 C14         6.1430   -2.1680   -4.3010 c3        1 MOL     -0.529472
     43 C15         4.8660   -1.3150   -4.3960 c         1 MOL      0.680588
     44 O9          4.8460   -0.4360   -5.2930 o         1 MOL     -0.569494
     45 H17         6.1720   -3.7050   -2.8390 hn        1 MOL      0.233036
     46 H18         5.8750   -2.9670   -5.0040 h1        1 MOL      0.205454
     47 H19         6.9190   -1.4790   -4.6410 h1        1 MOL      0.205454
     48 N5          3.8940   -1.3850   -3.4660 n         1 MOL     -0.396066
     49 C16         2.7850   -0.3920   -3.5110 c3        1 MOL     -0.243245
     50 C17         3.1700    0.9720   -2.9280 c         1 MOL      0.705673
     51 O10         4.0910    1.0880   -2.1510 o         1 MOL     -0.617127
     52 C18         1.6250   -1.0280   -2.7160 c3        1 MOL     -0.187486
     53 C19         0.8690   -2.0570   -3.4660 c         1 MOL      0.690206
     54 N6          0.4440   -3.0810   -2.7660 n         1 MOL     -0.797784
     55 O11         0.6980   -2.0560   -4.6600 o         1 MOL     -0.543790
     56 H20         3.8390   -2.1670   -2.8300 hn        1 MOL      0.295649
     57 H21         2.5360   -0.2610   -4.5690 h1        1 MOL      0.145097
     58 H22         0.8780   -0.3220   -2.3520 hc        1 MOL      0.066289
     59 H23         2.0340   -1.5450   -1.8500 hc        1 MOL      0.066289
     60 H24         0.5430   -3.0870   -1.7650 hn        1 MOL      0.383336
     61 H25        -0.0250   -3.8140   -3.2810 hn        1 MOL      0.383336
     62 N7          2.3470    1.9600   -3.2260 n         1 MOL     -0.547750
     63 C20         2.1880    3.1950   -2.4690 c3        1 MOL      0.208168
     64 C21         1.0290    3.9690   -3.1300 c         1 MOL      0.461102
     65 O12         0.8920    4.0750   -4.3280 o         1 MOL     -0.543643
     66 H26         1.5290    1.7080   -3.7670 hn        1 MOL      0.329587
     67 H27         3.0550    3.8400   -2.6240 h1        1 MOL      0.029449
     68 H28         2.1610    2.8880   -1.4190 h1        1 MOL      0.029449
     69 N8          0.1050    4.6180   -2.4420 n         1 MOL     -0.297380
     70 C22        -0.1740    4.6450   -1.0170 c3        1 MOL     -0.502565
     71 C23        -1.4030    3.7570   -0.7330 c         1 MOL      0.644323
     72 O13        -2.4100    3.8950   -1.3910 o         1 MOL     -0.487572
     73 C24        -0.4320    6.0580   -0.4900 c3        1 MOL      0.455538
     74 C25        -0.4480    6.1920    1.0040 c3        1 MOL     -0.333354
     75 O14         0.6350    6.9270   -0.7140 oh        1 MOL     -0.644220
     76 H29        -0.5300    5.1400   -3.0260 hn        1 MOL      0.325691
     77 H30         0.7170    4.3160   -0.4820 h1        1 MOL      0.094228
     78 H31        -1.3650    6.4760   -0.8510 h1        1 MOL      0.092287
     79 H32         1.4480    6.5120   -0.4140 ho        1 MOL      0.390290
     80 H33        -0.6650    7.2090    1.3380 hc        1 MOL      0.081007
     81 H34        -1.1320    5.5640    1.5690 hc        1 MOL      0.081007
     82 H35         0.5200    5.9180    1.4300 hc        1 MOL      0.081007
     83 N9         -1.2410    2.9510    0.3500 n         1 MOL     -0.172852
     84 C26        -2.2600    2.1200    0.9510 c3        1 MOL     -0.344042
     85 C27        -2.8400    2.8140    2.1950 c         1 MOL      0.666506
     86 O15        -2.3380    2.6710    3.2880 o         1 MOL     -0.561249
     87 C28        -1.7690    0.7400    1.2450 c3        1 MOL      0.228273
     88 C29        -1.2580   -0.0300    0.0270 c3        1 MOL     -0.295349
     89 C30        -2.8830   -0.1440    1.9140 c3        1 MOL     -0.204125
     90 C31        -2.1830   -0.1420   -1.1330 c3        1 MOL     -0.086308
     91 H36        -0.3250    2.9420    0.7700 hn        1 MOL      0.219732
     92 H37        -3.0620    2.0770    0.2110 h1        1 MOL      0.116087
     93 H38        -1.0170    0.7710    2.0250 hc        1 MOL      0.000605
     94 H39        -1.0480   -1.0150    0.4330 hc        1 MOL      0.048407
     95 H40        -0.2860    0.3680   -0.2560 hc        1 MOL      0.048407
     96 H41        -3.7400   -0.0560    1.2560 hc        1 MOL      0.083913
     97 H42        -2.4250   -1.1340    1.9920 hc        1 MOL      0.083913
     98 H43        -3.0960    0.1420    2.9450 hc        1 MOL      0.083913
     99 H44        -3.1620   -0.5520   -0.9080 hc        1 MOL      0.062694
    100 H45        -2.3500    0.8350   -1.5840 hc        1 MOL      0.062694
    101 H46        -1.8920   -0.8740   -1.8950 hc        1 MOL      0.062694
    102 N10        -3.8780    3.6880    2.1250 n         1 MOL     -0.753848
    103 C32        -5.0110    3.6290    1.1280 c3        1 MOL      0.375521
    104 C33        -5.9230    2.3300    1.4440 c         1 MOL      0.548406
    105 O16        -5.8520    1.7180    2.5160 o         1 MOL     -0.568818
    106 C34        -5.9100    4.8630    1.2020 c3        1 MOL     -0.263799
    107 C35        -6.9300    4.8840    0.1050 c         1 MOL      0.706786
    108 O17        -7.9630    5.6260    0.1560 o         1 MOL     -0.710748
    109 O18        -6.6320    4.2570   -0.9600 o         1 MOL     -0.710748
    110 H47        -4.0620    4.1540    3.0100 hn        1 MOL      0.363924
    111 H48        -4.6380    3.5420    0.1050 h1        1 MOL     -0.000841
    112 H49        -5.3440    5.7880    1.1140 hc        1 MOL      0.035292
    113 H50        -6.3840    4.9620    2.1770 hc        1 MOL      0.035292
    114 N11        -6.7600    1.9300    0.4830 n         1 MOL     -0.622696
    115 C36        -7.5590    0.7610    0.5370 c3        1 MOL      0.512962
    116 C37        -7.9770    0.3320   -0.8690 c         1 MOL      0.228567
    117 O19        -8.3230    1.2020   -1.6900 o         1 MOL     -0.466427
    118 C38        -8.8400    1.1290    1.3700 c3        1 MOL     -0.338739
    119 C39        -9.5680    0.0060    1.9630 ca        1 MOL      0.203060
    120 C40       -10.8120   -0.3050    1.4070 ca        1 MOL     -0.183224
    121 C41        -9.0330   -0.6780    3.0970 ca        1 MOL     -0.183224
    122 C42       -11.6190   -1.3050    1.9510 ca        1 MOL     -0.112366
    123 C43        -9.9210   -1.5620    3.6970 ca        1 MOL     -0.112366
    124 C44       -11.1680   -1.9180    3.1450 ca        1 MOL     -0.180846
    125 H51        -6.5400    2.2660   -0.4410 hn        1 MOL      0.336886
    126 H52        -7.0220   -0.0260    1.0860 h1        1 MOL     -0.046836
    127 H53        -9.4480    1.8070    0.7600 hc        1 MOL      0.100541
    128 H54        -8.5870    1.7130    2.2600 hc        1 MOL      0.100541
    129 H55       -11.0850    0.3040    0.5620 ha        1 MOL      0.130728
    130 H56        -8.0800   -0.4200    3.5420 ha        1 MOL      0.130728
    131 H57       -12.4790   -1.6800    1.4290 ha        1 MOL      0.100694
    132 H58        -9.6110   -1.9860    4.6440 ha        1 MOL      0.100694
    133 H59       -11.7370   -2.6820    3.6360 ha        1 MOL      0.106229
    134 N12        -8.0970   -1.0000   -1.1560 n         1 MOL      0.039166
    135 C45        -7.7460   -2.1580   -0.3160 c3        1 MOL     -0.092531
    136 C46        -6.2470   -2.4110   -0.2970 c         1 MOL      0.882043
    137 O20        -5.4630   -1.4740   -0.5440 o         1 MOL     -0.679627
    138 C47        -8.6650   -3.3130   -0.8110 c3        1 MOL     -0.132833
    139 C48        -8.6890   -3.0140   -2.2910 c3        1 MOL     -0.004963
    140 C49        -8.5720   -1.4800   -2.4510 c3        1 MOL      0.021084
    141 H60        -8.0340   -1.8310    0.6890 h1        1 MOL     -0.012069
    142 H61        -8.2540   -4.3000   -0.5920 hc        1 MOL      0.040959
    143 H62        -9.7010   -3.2610   -0.4860 hc        1 MOL      0.040959
    144 H63        -7.7390   -3.4130   -2.6280 hc        1 MOL      0.025935
    145 H64        -9.5370   -3.4680   -2.8010 hc        1 MOL      0.025935
    146 H65        -7.9210   -1.2000   -3.2860 h1        1 MOL      0.013864
    147 H66        -9.5760   -1.0570   -2.5750 h1        1 MOL      0.013864
    148 N13        -5.7410   -3.5020    0.2130 n         1 MOL     -0.616404
    149 C50        -4.2880   -3.6800    0.3250 c3        1 MOL      0.246843
    150 C51        -3.9570   -4.7820    1.4110 c         1 MOL      0.379051
    151 O21        -3.0800   -5.5710    1.1520 o         1 MOL     -0.501097
    152 C52        -3.5820   -3.8470   -1.0750 c3        1 MOL      0.030117
    153 C53        -3.9410   -5.1650   -1.7380 c3        1 MOL     -0.276839
    154 C54        -5.1930   -5.0840   -2.6160 c         1 MOL      0.794385
    155 O22        -6.1890   -5.6930   -2.1880 o         1 MOL     -0.743618
    156 O23        -5.1580   -4.6700   -3.7750 o         1 MOL     -0.743618
    157 H67        -6.3120   -4.2250    0.6230 hn        1 MOL      0.302378
    158 H68        -3.9610   -2.7360    0.7610 h1        1 MOL     -0.015226
    159 H69        -2.5000   -3.8700   -0.9410 hc        1 MOL      0.009049
    160 H70        -3.8870   -3.0260   -1.7220 hc        1 MOL      0.009049
    161 H71        -3.9540   -5.9860   -1.0100 hc        1 MOL      0.035322
    162 H72        -3.0770   -5.3970   -2.3530 hc        1 MOL      0.035322
    163 N14        -4.6770   -4.8420    2.5760 n         1 MOL     -0.354906
    164 C55        -5.4240   -3.7620    3.2100 c3        1 MOL      0.020458
    165 H73        -5.1900   -2.8200    2.7150 h1        1 MOL      0.032066
    166 H74        -6.4930   -3.9600    3.1260 h1        1 MOL      0.032066
    167 H75        -5.1480   -3.6970    4.2620 h1        1 MOL      0.032066
    168 H76        -4.5270   -5.6810    3.1120 hn        1 MOL      0.263372
    169 Ca1         6.2000    1.2760   -0.7570 Ca        1 MOL      1.698737
    170 O24         6.4570    2.0910   -3.3510 oh        1 MOL     -0.799646
    171 H77         7.0540    1.9770   -4.0880 ho        1 MOL      0.401721
    172 H78         5.6800    2.4900   -3.7330 ho        1 MOL      0.401721
    173 O25         6.1540    4.2970   -0.9960 oh        1 MOL     -0.799646
    174 H79         5.5180    4.9440   -1.3080 ho        1 MOL      0.401721
    175 H80         6.8220    4.8210   -0.5530 ho        1 MOL      0.401721
    176 O26         4.1270    2.7830    0.5940 oh        1 MOL     -0.799646
    177 H81         3.8940    3.5200    1.1430 ho        1 MOL      0.401721
    178 H82         3.6200    2.0540    0.9360 ho        1 MOL      0.401721
    179 O27         8.5730    2.3000   -1.0410 oh        1 MOL     -0.799646
    180 H83         9.4150    1.9570   -0.7460 ho        1 MOL      0.401721
    181 H84         8.7840    3.1260   -1.4600 ho        1 MOL      0.401721
@<TRIPOS>BOND
     1    1    2 1   
     2    1    4 1   
     3    1    5 1   
     4    1    6 1   
     5    2    3 2   
     6    2    7 1   
     7    7    8 1   
     8    7   15 1   
     9    8    9 1   
    10    8   11 1   
    11    8   16 1   
    12    9   10 2   
    13    9   19 1   
    14   11   12 1   
    15   11   17 1   
    16   11   18 1   
    17   12   13 1   
    18   12   14 1   
    19   19   20 1   
    20   19   24 1   
    21   20   21 1   
    22   20   23 1   
    23   20   25 1   
    24   21   22 2   
    25   21   29 1   
    26   23   26 1   
    27   23   27 1   
    28   23   28 1   
    29   29   30 1   
    30   29   37 1   
    31   30   31 1   
    32   30   33 1   
    33   30   38 1   
    34   31   32 2   
    35   31   41 1   
    36   33   34 1   
    37   33   39 1   
    38   33   40 1   
    39   34   35 1   
    40   34   36 1   
    41   41   42 1   
    42   41   45 1   
    43   42   43 1   
    44   42   46 1   
    45   42   47 1   
    46   43   44 2   
    47   43   48 1   
    48   48   49 1   
    49   48   56 1   
    50   49   50 1   
    51   49   52 1   
    52   49   57 1   
    53   50   51 2   
    54   50   62 1   
    55   52   53 1   
    56   52   58 1   
    57   52   59 1   
    58   53   54 1   
    59   53   55 2   
    60   54   60 1   
    61   54   61 1   
    62   62   63 1   
    63   62   66 1   
    64   63   64 1   
    65   63   67 1   
    66   63   68 1   
    67   64   65 2   
    68   64   69 1   
    69   69   70 1   
    70   69   76 1   
    71   70   71 1   
    72   70   73 1   
    73   70   77 1   
    74   71   72 2   
    75   71   83 1   
    76   73   74 1   
    77   73   75 1   
    78   73   78 1   
    79   74   80 1   
    80   74   81 1   
    81   74   82 1   
    82   75   79 1   
    83   83   84 1   
    84   83   91 1   
    85   84   85 1   
    86   84   87 1   
    87   84   92 1   
    88   85   86 2   
    89   85  102 1   
    90   87   88 1   
    91   87   89 1   
    92   87   93 1   
    93   88   90 1   
    94   88   94 1   
    95   88   95 1   
    96   89   96 1   
    97   89   97 1   
    98   89   98 1   
    99   90   99 1   
   100   90  100 1   
   101   90  101 1   
   102  102  103 1   
   103  102  110 1   
   104  103  104 1   
   105  103  106 1   
   106  103  111 1   
   107  104  105 2   
   108  104  114 1   
   109  106  107 1   
   110  106  112 1   
   111  106  113 1   
   112  107  108 1   
   113  107  109 1   
   114  114  115 1   
   115  114  125 1   
   116  115  116 1   
   117  115  118 1   
   118  115  126 1   
   119  116  117 2   
   120  116  134 1   
   121  118  119 1   
   122  118  127 1   
   123  118  128 1   
   124  119  120 ar  
   125  119  121 ar  
   126  120  122 ar  
   127  120  129 1   
   128  121  123 ar  
   129  121  130 1   
   130  122  124 ar  
   131  122  131 1   
   132  123  124 ar  
   133  123  132 1   
   134  124  133 1   
   135  134  135 1   
   136  134  140 1   
   137  135  136 1   
   138  135  138 1   
   139  135  141 1   
   140  136  137 2   
   141  136  148 1   
   142  138  139 1   
   143  138  142 1   
   144  138  143 1   
   145  139  140 1   
   146  139  144 1   
   147  139  145 1   
   148  140  146 1   
   149  140  147 1   
   150  148  149 1   
   151  148  157 1   
   152  149  150 1   
   153  149  152 1   
   154  149  158 1   
   155  150  151 2   
   156  150  163 1   
   157  152  153 1   
   158  152  159 1   
   159  152  160 1   
   160  153  154 1   
   161  153  161 1   
   162  153  162 1   
   163  154  155 1   
   164  154  156 1   
   165  163  164 1   
   166  163  168 1   
   167  164  165 1   
   168  164  166 1   
   169  164  167 1   
   170  170  171 1   
   171  170  172 1   
   172  173  174 1   
   173  173  175 1   
   174  176  177 1   
   175  176  178 1   
   176  179  180 1   
   177  179  181 1   
@<TRIPOS>SUBSTRUCTURE
     1 MOL         1 TEMP              0 ****  ****    0 ROOT
