@<TRIPOS>MOLECULE
MOL
  186   183     1     0     0
SMALL
resp


@<TRIPOS>ATOM
      1 C1         12.0790    2.8230   -4.5070 c3        1 MOL     -0.544877
      2 C2         11.7210    2.1660   -3.1510 c         1 MOL      0.686057
      3 O1         11.7100    0.9390   -2.9680 o         1 MOL     -0.566717
      4 H1         11.1830    2.8960   -5.1230 hc        1 MOL      0.147632
      5 H2         12.4830    3.8210   -4.3330 hc        1 MOL      0.147632
      6 H3         12.8240    2.2140   -5.0210 hc        1 MOL      0.147632
      7 N1         11.4850    2.9600   -2.1030 n         1 MOL     -0.182888
      8 C3         11.2950    2.4460   -0.7300 c3        1 MOL     -0.669599
      9 C4          9.9830    1.6830   -0.6400 c         1 MOL      0.533565
     10 O2          8.9510    2.0020   -1.3320 o         1 MOL     -0.742987
     11 C5         11.5180    3.4710    0.3260 c3        1 MOL      0.188536
     12 C6         10.8010    4.7730    0.1170 c         1 MOL      0.745500
     13 O3          9.8450    4.8760   -0.6970 o         1 MOL     -0.733094
     14 O4         11.1620    5.7510    0.7580 o         1 MOL     -0.733094
     15 H4         11.4200    3.9280   -2.3600 hn        1 MOL      0.175967
     16 H5         12.0930    1.7260   -0.5680 h1        1 MOL      0.211591
     17 H6         12.5850    3.6630    0.3250 hc        1 MOL      0.021866
     18 H7         11.1590    2.9880    1.2300 hc        1 MOL      0.021866
     19 N2          9.9790    0.6380    0.2220 n         1 MOL     -0.063435
     20 C7          9.0600   -0.5130    0.2160 c3        1 MOL     -0.022724
     21 C8          7.5520   -0.2090    0.2300 c         1 MOL      0.542791
     22 O5          6.8400   -1.0750   -0.2440 o         1 MOL     -0.509615
     23 C9          9.4710   -1.3580    1.3890 c3        1 MOL     -0.641340
     24 C10         9.2120   -0.8920    2.8000 c3        1 MOL      0.058830
     25 C11         9.7760   -1.9600    3.8440 c3        1 MOL      0.123402
     26 C12         9.3900   -1.5660    5.3130 c3        1 MOL     -0.154796
     27 N3          7.9240   -1.4350    5.5560 n4        1 MOL     -0.236542
     28 H8         10.8240    0.5020    0.7570 hn        1 MOL      0.206553
     29 H9          9.2530   -1.1040   -0.6740 h1        1 MOL      0.133502
     30 H10        10.5360   -1.5430    1.2100 hc        1 MOL      0.217488
     31 H11         8.9330   -2.3040    1.3010 hc        1 MOL      0.217488
     32 H12         8.1490   -0.6790    2.9360 hc        1 MOL      0.005735
     33 H13         9.7790   -0.0130    3.1040 hc        1 MOL      0.005735
     34 H14        10.8410   -2.1040    3.6260 hc        1 MOL      0.029112
     35 H15         9.3600   -2.9400    3.6300 hc        1 MOL      0.029112
     36 H16         9.8870   -0.6160    5.4770 hx        1 MOL      0.111873
     37 H17         9.8490   -2.4060    5.8390 hx        1 MOL      0.111873
     38 H18         7.5500   -0.7680    4.8910 hn        1 MOL      0.309994
     39 H19         7.3900   -2.2850    5.5480 hn        1 MOL      0.309994
     40 H20         7.8530   -0.9320    6.4360 hn        1 MOL      0.309994
     41 N4          7.1210    0.9790    0.6380 n         1 MOL      0.042198
     42 C13         5.6830    1.2880    0.6570 c3        1 MOL     -0.314378
     43 C14         5.1140    1.5680   -0.7570 c         1 MOL      0.502824
     44 O6          5.6690    2.3770   -1.4750 o         1 MOL     -0.664512
     45 C15         5.3360    2.3370    1.7060 c3        1 MOL      0.074087
     46 C16         6.4270    3.4070    1.8940 c         1 MOL      0.386403
     47 O7          6.3520    4.1000    2.8800 o         1 MOL     -0.564997
     48 O8          7.4100    3.4040    1.0780 o         1 MOL     -0.564997
     49 H21         7.8110    1.7040    0.7710 hn        1 MOL      0.032000
     50 H22         5.2610    0.3750    1.0840 h1        1 MOL      0.091236
     51 H23         5.1600    1.8940    2.6830 hc        1 MOL      0.035806
     52 H24         4.3820    2.7800    1.4080 hc        1 MOL      0.035806
     53 N5          3.8920    1.0380   -1.1700 n         1 MOL     -0.233279
     54 C17         3.0570    0.1200   -0.4950 c3        1 MOL     -0.159598
     55 C18         3.6160   -1.3320   -0.4310 c         1 MOL      0.651107
     56 O9          3.5780   -2.0990   -1.4020 o         1 MOL     -0.571089
     57 H25         3.5250    1.4060   -2.0320 hn        1 MOL      0.265331
     58 H26         2.0860    0.1000   -0.9880 h1        1 MOL      0.080252
     59 H27         2.9890    0.5330    0.5160 h1        1 MOL      0.080252
     60 N6          4.0290   -1.7980    0.7590 n         1 MOL     -0.523775
     61 C19         4.3830   -3.1930    1.0230 c3        1 MOL      0.170874
     62 C20         3.1060   -4.0310    1.3310 c         1 MOL      0.553350
     63 O10         2.1640   -3.6380    2.0110 o         1 MOL     -0.536586
     64 C21         5.4070   -3.2510    2.1390 c3        1 MOL     -0.101946
     65 C22         6.0910   -4.6680    2.1980 c         1 MOL      0.631832
     66 O11         6.1240   -5.3210    1.1120 o         1 MOL     -0.678180
     67 O12         6.5660   -5.0270    3.3160 o         1 MOL     -0.678180
     68 H28         3.9510   -1.2130    1.5800 hn        1 MOL      0.255774
     69 H29         4.8640   -3.5450    0.1080 h1        1 MOL      0.059466
     70 H30         5.0220   -3.0470    3.1360 hc        1 MOL     -0.037722
     71 H31         6.2080   -2.5790    1.8210 hc        1 MOL     -0.037722
     72 N7          3.1970   -5.2660    0.8530 n         1 MOL     -0.254955
     73 C23         2.2330   -6.3870    0.8060 c3        1 MOL     -0.393003
     74 C24         0.9170   -6.2270    0.0910 c         1 MOL      0.592089
     75 O13         0.1030   -7.1530    0.1050 o         1 MOL     -0.568918
     76 H32         4.0400   -5.4970    0.3510 hn        1 MOL      0.257161
     77 H33         2.1420   -6.7010    1.8460 h1        1 MOL      0.172326
     78 H34         2.7080   -7.1620    0.2060 h1        1 MOL      0.172326
     79 N8          0.7420   -5.0550   -0.4970 n         1 MOL     -0.201131
     80 C25        -0.4470   -4.6230   -1.1430 c3        1 MOL      0.014157
     81 C26        -0.9020   -3.2640   -0.6410 c         1 MOL      0.615124
     82 O14        -0.0770   -2.4810   -0.1290 o         1 MOL     -0.530698
     83 C27        -0.2040   -4.5750   -2.6530 c3        1 MOL      0.291756
     84 C28         1.0480   -3.9010   -3.3250 c3        1 MOL     -0.026429
     85 O15        -0.2180   -5.9440   -3.1590 oh        1 MOL     -0.620026
     86 H35         1.3630   -4.3310   -0.1500 hn        1 MOL      0.103441
     87 H36        -1.1800   -5.4100   -0.9440 h1        1 MOL      0.021331
     88 H37        -1.0660   -4.0580   -3.0780 h1        1 MOL     -0.055345
     89 H38        -1.1390   -6.2180   -3.1610 ho        1 MOL      0.377268
     90 H39         1.0080   -4.0910   -4.4000 hc        1 MOL      0.022943
     91 H40         0.8290   -2.8400   -3.2320 hc        1 MOL      0.022943
     92 H41         1.9920   -4.2070   -2.8640 hc        1 MOL      0.022943
     93 N9         -2.0860   -2.8890   -1.0600 n         1 MOL     -0.605467
     94 C29        -2.6690   -1.5660   -0.7580 c3        1 MOL      0.011385
     95 C30        -4.1000   -1.7320   -0.1610 c         1 MOL      0.716008
     96 O16        -4.3240   -1.1490    0.9040 o         1 MOL     -0.557533
     97 C31        -2.8250   -0.6220   -1.9390 c3        1 MOL     -0.066021
     98 C32        -1.5510   -0.7170   -2.8300 c3        1 MOL      0.113313
     99 C33        -3.1770    0.8060   -1.5680 c3        1 MOL     -0.119033
    100 C34        -1.6030   -0.0300   -4.1650 c3        1 MOL     -0.138994
    101 H42        -2.5480   -3.6000   -1.6070 hn        1 MOL      0.297251
    102 H43        -2.1480   -1.1000    0.0750 h1        1 MOL      0.109275
    103 H44        -3.7020   -0.9210   -2.5090 hc        1 MOL      0.021901
    104 H45        -1.4400   -1.7910   -3.0170 hc        1 MOL      0.032288
    105 H46        -0.6420   -0.3770   -2.3400 hc        1 MOL      0.032288
    106 H47        -4.0130    1.0270   -0.9020 hc        1 MOL      0.044077
    107 H48        -2.2820    1.1980   -1.0860 hc        1 MOL      0.044077
    108 H49        -3.3670    1.3680   -2.4840 hc        1 MOL      0.044077
    109 H50        -2.1270   -0.6910   -4.8550 hc        1 MOL      0.023937
    110 H51        -1.8800    1.0300   -4.1360 hc        1 MOL      0.023937
    111 H52        -0.5680   -0.1160   -4.4960 hc        1 MOL      0.023937
    112 N10        -5.0150   -2.5210   -0.7090 n         1 MOL     -0.644267
    113 C35        -6.2890   -2.7590    0.0080 c3        1 MOL      0.042178
    114 C36        -7.4780   -2.7620   -0.9990 c         1 MOL      0.702528
    115 O17        -7.2480   -3.0590   -2.1840 o         1 MOL     -0.550942
    116 C37        -6.2110   -4.0390    0.8410 c3        1 MOL      0.305940
    117 C38        -5.0970   -4.1540    1.8770 c3        1 MOL     -0.347279
    118 O18        -7.4150   -4.1420    1.5960 oh        1 MOL     -0.668911
    119 H53        -4.7650   -3.1450   -1.4680 hn        1 MOL      0.326121
    120 H54        -6.5460   -1.9730    0.7130 h1        1 MOL      0.126776
    121 H55        -6.2050   -4.8340    0.0860 h1        1 MOL     -0.006718
    122 H56        -7.4510   -4.9790    2.0620 ho        1 MOL      0.416732
    123 H57        -5.2360   -5.0610    2.4740 hc        1 MOL      0.106233
    124 H58        -4.1210   -4.2410    1.4030 hc        1 MOL      0.106233
    125 H59        -5.0990   -3.2370    2.4630 hc        1 MOL      0.106233
    126 N11        -8.6790   -2.4560   -0.5110 n         1 MOL     -0.742636
    127 C39        -9.8730   -2.1750   -1.3250 c3        1 MOL      0.086547
    128 C40       -10.3900   -0.7230   -1.2450 c         1 MOL      0.758774
    129 O19       -10.8580   -0.3060   -2.2820 o         1 MOL     -0.619326
    130 C41       -10.9110   -3.1750   -0.8890 c3        1 MOL      0.334630
    131 C42       -12.2330   -3.0260   -1.6680 c3        1 MOL     -0.261503
    132 O20       -11.1800   -3.0030    0.4620 oh        1 MOL     -0.629167
    133 H60        -8.8460   -2.5410    0.4810 hn        1 MOL      0.328967
    134 H61        -9.6270   -2.3380   -2.3810 h1        1 MOL      0.080090
    135 H62       -10.5260   -4.1980   -0.9100 h1        1 MOL      0.017053
    136 H63       -10.7310   -3.7530    0.8770 ho        1 MOL      0.392600
    137 H64       -12.0330   -3.6050   -2.5750 hc        1 MOL      0.062929
    138 H65       -13.0700   -3.4390   -1.1090 hc        1 MOL      0.062929
    139 H66       -12.5260   -2.0280   -1.9980 hc        1 MOL      0.062929
    140 N12       -10.1730    0.0030   -0.1540 n         1 MOL     -0.544492
    141 C43       -10.4500    1.5050   -0.0720 c3        1 MOL     -0.103532
    142 C44        -9.3630    2.1370    0.7930 c         1 MOL      0.679344
    143 O21        -9.0240    1.6150    1.7920 o         1 MOL     -0.535611
    144 C45       -11.7830    1.8830    0.5610 c3        1 MOL     -0.136868
    145 C46       -13.0550    1.6700   -0.3070 c3        1 MOL      0.055205
    146 C47       -14.3850    1.8650    0.5330 c3        1 MOL     -0.365101
    147 C48       -14.4470    3.1420    1.4420 c3        1 MOL      0.092117
    148 N13       -15.7700    3.2090    2.1600 n4        1 MOL     -0.302055
    149 H67        -9.7570   -0.4860    0.6250 hn        1 MOL      0.311439
    150 H68       -10.4010    1.9570   -1.0700 h1        1 MOL      0.130918
    151 H69       -11.8150    2.9210    0.8960 hc        1 MOL      0.083130
    152 H70       -11.9110    1.2640    1.4470 hc        1 MOL      0.083130
    153 H71       -13.1350    0.6610   -0.7240 hc        1 MOL      0.059143
    154 H72       -13.0130    2.2840   -1.1990 hc        1 MOL      0.059143
    155 H73       -14.5470    0.9340    1.0750 hc        1 MOL      0.124253
    156 H74       -15.2010    1.8580   -0.1900 hc        1 MOL      0.124253
    157 H75       -14.1540    4.0020    0.8490 hx        1 MOL      0.083336
    158 H76       -13.6200    3.1670    2.1550 hx        1 MOL      0.083336
    159 H77       -15.8190    3.9870    2.8060 hn        1 MOL      0.268622
    160 H78       -16.5220    3.0390    1.5120 hn        1 MOL      0.268622
    161 H79       -15.8720    2.4180    2.7760 hn        1 MOL      0.268622
    162 N14        -8.8670    3.3060    0.3980 n         1 MOL     -0.501200
    163 C49        -7.8620    4.0640    1.1600 c3        1 MOL     -0.024646
    164 C50        -6.4190    3.5770    0.8620 c         1 MOL      0.551625
    165 O22        -5.7210    3.2190    1.7890 o         1 MOL     -0.520007
    166 C51        -8.1230    5.5890    0.8570 c3        1 MOL      0.037980
    167 C52        -6.9890    6.4970    1.4690 c3        1 MOL     -0.131955
    168 C53        -7.3270    8.0260    1.3330 c         1 MOL      0.609944
    169 O23        -8.1490    8.5160    2.1760 o         1 MOL     -0.635003
    170 O24        -7.0100    8.5740    0.2410 o         1 MOL     -0.635003
    171 H80        -9.3050    3.7130   -0.4140 hn        1 MOL      0.237061
    172 H81        -8.1460    4.0100    2.2140 h1        1 MOL      0.109840
    173 H82        -9.0900    5.9140    1.2220 hc        1 MOL      0.020581
    174 H83        -8.0930    5.7320   -0.2280 hc        1 MOL      0.020581
    175 H84        -5.9810    6.2120    1.2070 hc        1 MOL      0.016213
    176 H85        -7.0260    6.1600    2.5050 hc        1 MOL      0.016213
    177 N15        -5.8830    3.5680   -0.4090 n         1 MOL     -0.403111
    178 C54        -6.4980    4.0470   -1.7090 c3        1 MOL     -0.050817
    179 H86        -7.4080    3.4820   -1.9100 h1        1 MOL      0.060665
    180 H87        -6.7390    5.1080   -1.6270 h1        1 MOL      0.060665
    181 H88        -5.7900    3.8960   -2.5240 h1        1 MOL      0.060665
    182 H89        -4.9640    3.1920   -0.5620 hn        1 MOL      0.271502
    183 Ca1         7.5300    4.1910   -1.5050 Ca        1 MOL      1.737043
    184 O25         7.8140    2.6730   -3.6950 oh        1 MOL     -0.884852
    185 H90         8.0070    2.3370   -4.5740 ho        1 MOL      0.458067
    186 H91         7.8370    1.8970   -3.1440 ho        1 MOL      0.458067
@<TRIPOS>BOND
     1    1    2 1   
     2    1    4 1   
     3    1    5 1   
     4    1    6 1   
     5    2    3 2   
     6    2    7 1   
     7    7    8 1   
     8    7   15 1   
     9    8    9 1   
    10    8   11 1   
    11    8   16 1   
    12    9   10 2   
    13    9   19 1   
    14   11   12 1   
    15   11   17 1   
    16   11   18 1   
    17   12   13 1   
    18   12   14 1   
    19   19   20 1   
    20   19   28 1   
    21   20   21 1   
    22   20   23 1   
    23   20   29 1   
    24   21   22 2   
    25   21   41 1   
    26   23   24 1   
    27   23   30 1   
    28   23   31 1   
    29   24   25 1   
    30   24   32 1   
    31   24   33 1   
    32   25   26 1   
    33   25   34 1   
    34   25   35 1   
    35   26   27 1   
    36   26   36 1   
    37   26   37 1   
    38   27   38 1   
    39   27   39 1   
    40   27   40 1   
    41   41   42 1   
    42   41   49 1   
    43   42   43 1   
    44   42   45 1   
    45   42   50 1   
    46   43   44 2   
    47   43   53 1   
    48   45   46 1   
    49   45   51 1   
    50   45   52 1   
    51   46   47 1   
    52   46   48 1   
    53   53   54 1   
    54   53   57 1   
    55   54   55 1   
    56   54   58 1   
    57   54   59 1   
    58   55   56 2   
    59   55   60 1   
    60   60   61 1   
    61   60   68 1   
    62   61   62 1   
    63   61   64 1   
    64   61   69 1   
    65   62   63 2   
    66   62   72 1   
    67   64   65 1   
    68   64   70 1   
    69   64   71 1   
    70   65   66 1   
    71   65   67 1   
    72   72   73 1   
    73   72   76 1   
    74   73   74 1   
    75   73   77 1   
    76   73   78 1   
    77   74   75 2   
    78   74   79 1   
    79   79   80 1   
    80   79   86 1   
    81   80   81 1   
    82   80   83 1   
    83   80   87 1   
    84   81   82 2   
    85   81   93 1   
    86   83   84 1   
    87   83   85 1   
    88   83   88 1   
    89   84   90 1   
    90   84   91 1   
    91   84   92 1   
    92   85   89 1   
    93   93   94 1   
    94   93  101 1   
    95   94   95 1   
    96   94   97 1   
    97   94  102 1   
    98   95   96 2   
    99   95  112 1   
   100   97   98 1   
   101   97   99 1   
   102   97  103 1   
   103   98  100 1   
   104   98  104 1   
   105   98  105 1   
   106   99  106 1   
   107   99  107 1   
   108   99  108 1   
   109  100  109 1   
   110  100  110 1   
   111  100  111 1   
   112  112  113 1   
   113  112  119 1   
   114  113  114 1   
   115  113  116 1   
   116  113  120 1   
   117  114  115 2   
   118  114  126 1   
   119  116  117 1   
   120  116  118 1   
   121  116  121 1   
   122  117  123 1   
   123  117  124 1   
   124  117  125 1   
   125  118  122 1   
   126  126  127 1   
   127  126  133 1   
   128  127  128 1   
   129  127  130 1   
   130  127  134 1   
   131  128  129 2   
   132  128  140 1   
   133  130  131 1   
   134  130  132 1   
   135  130  135 1   
   136  131  137 1   
   137  131  138 1   
   138  131  139 1   
   139  132  136 1   
   140  140  141 1   
   141  140  149 1   
   142  141  142 1   
   143  141  144 1   
   144  141  150 1   
   145  142  143 2   
   146  142  162 1   
   147  144  145 1   
   148  144  151 1   
   149  144  152 1   
   150  145  146 1   
   151  145  153 1   
   152  145  154 1   
   153  146  147 1   
   154  146  155 1   
   155  146  156 1   
   156  147  148 1   
   157  147  157 1   
   158  147  158 1   
   159  148  159 1   
   160  148  160 1   
   161  148  161 1   
   162  162  163 1   
   163  162  171 1   
   164  163  164 1   
   165  163  166 1   
   166  163  172 1   
   167  164  165 2   
   168  164  177 1   
   169  166  167 1   
   170  166  173 1   
   171  166  174 1   
   172  167  168 1   
   173  167  175 1   
   174  167  176 1   
   175  168  169 1   
   176  168  170 1   
   177  177  178 1   
   178  177  182 1   
   179  178  179 1   
   180  178  180 1   
   181  178  181 1   
   182  184  185 1   
   183  184  186 1   
@<TRIPOS>SUBSTRUCTURE
     1 MOL         1 TEMP              0 ****  ****    0 ROOT
