@<TRIPOS>MOLECULE
MOL
  181   177     1     0     0
SMALL
resp


@<TRIPOS>ATOM
      1 C1          1.8000    4.6830    2.8140 c3        1 MOL     -0.250217
      2 C2          0.3190    5.1250    2.4180 c         1 MOL      0.567966
      3 O1         -0.7140    4.4610    2.5630 o         1 MOL     -0.547912
      4 H1          2.4670    5.5430    2.7430 hc        1 MOL      0.067705
      5 H2          1.8050    4.3020    3.8360 hc        1 MOL      0.067705
      6 H3          2.1410    3.9020    2.1340 hc        1 MOL      0.067705
      7 N1          0.2420    6.3680    1.9060 n         1 MOL     -0.207998
      8 C3         -0.9190    6.9680    1.2420 c3        1 MOL     -0.157434
      9 C4         -1.5120    6.1410    0.0100 c         1 MOL      0.531631
     10 O2         -0.7270    5.6260   -0.8280 o         1 MOL     -0.476226
     11 C5         -0.4600    8.3870    0.6620 c3        1 MOL     -0.270820
     12 C6          0.2910    9.2460    1.6700 c         1 MOL      0.668877
     13 O3          1.5360    9.0590    1.7950 o         1 MOL     -0.700365
     14 O4         -0.3440    9.9670    2.4840 o         1 MOL     -0.700365
     15 H4          1.0960    6.8800    1.7660 hn        1 MOL      0.179939
     16 H5         -1.7190    7.2000    1.9440 h1        1 MOL      0.101128
     17 H6         -1.3190    8.9260    0.2630 hc        1 MOL      0.061031
     18 H7          0.1000    8.3060   -0.2770 hc        1 MOL      0.061031
     19 N2         -2.7900    6.2150   -0.1930 n         1 MOL     -0.400660
     20 C7         -3.5170    5.5420   -1.2550 c3        1 MOL      0.105204
     21 C8         -3.2420    4.0440   -1.0110 c         1 MOL      0.465187
     22 O5         -3.6900    3.4550    0.0080 o         1 MOL     -0.519481
     23 C9         -4.9840    5.9260   -1.0700 c3        1 MOL     -0.305405
     24 H8         -3.2830    6.5180    0.6270 hn        1 MOL      0.284658
     25 H9         -3.0200    5.8210   -2.1820 h1        1 MOL      0.070248
     26 H10        -5.6490    5.4240   -1.7710 hc        1 MOL      0.086746
     27 H11        -5.1640    5.7340   -0.0140 hc        1 MOL      0.086746
     28 H12        -5.0770    7.0050   -1.1700 hc        1 MOL      0.086746
     29 N3         -2.6610    3.3580   -1.9860 n         1 MOL     -0.520261
     30 C10        -2.2800    1.9440   -1.9330 c3        1 MOL      0.282261
     31 C11        -3.0130    1.0690   -3.0170 c         1 MOL      0.395672
     32 O6         -2.8510   -0.1610   -3.1530 o         1 MOL     -0.496958
     33 C12        -0.7550    1.7940   -1.8570 c3        1 MOL     -0.022369
     34 C13        -0.0160    2.6090   -2.9070 c         1 MOL      0.673531
     35 O7          1.2700    2.7070   -2.8430 o         1 MOL     -0.725046
     36 O8         -0.6030    3.1140   -3.8760 o         1 MOL     -0.725046
     37 H13        -2.4730    3.8550   -2.8480 hn        1 MOL      0.304338
     38 H14        -2.6480    1.5340   -0.9840 h1        1 MOL      0.030802
     39 H15        -0.4980    0.7470   -1.9940 hc        1 MOL      0.030108
     40 H16        -0.3470    2.1070   -0.9000 hc        1 MOL      0.030108
     41 N4         -3.8680    1.6300   -3.9140 n         1 MOL     -0.263791
     42 C14        -4.6180    0.9420   -5.0470 c3        1 MOL     -0.158605
     43 C15        -5.8050   -0.0330   -4.6520 c         1 MOL      0.389497
     44 O9         -6.5980   -0.4040   -5.5430 o         1 MOL     -0.512221
     45 H17        -4.0890    2.6000   -3.7550 hn        1 MOL      0.212498
     46 H18        -3.9450    0.2510   -5.5610 h1        1 MOL      0.119370
     47 H19        -5.0720    1.6220   -5.7630 h1        1 MOL      0.119370
     48 N5         -5.8520   -0.6480   -3.4410 n         1 MOL     -0.112723
     49 C16        -6.8870   -1.4610   -2.8230 c3        1 MOL      0.186231
     50 C17        -6.6450   -1.3710   -1.2730 c         1 MOL      0.325761
     51 O10        -5.5540   -1.0020   -0.8550 o         1 MOL     -0.368071
     52 C18        -6.7980   -2.9660   -3.1650 c3        1 MOL     -0.358201
     53 C19        -7.2280   -3.3160   -4.5780 c         1 MOL      0.591526
     54 N6         -6.2490   -3.6100   -5.4440 n         1 MOL     -0.692267
     55 O11        -8.3630   -3.3600   -5.0000 o         1 MOL     -0.537164
     56 H20        -5.1420   -0.2960   -2.8160 hn        1 MOL      0.051467
     57 H21        -7.8230   -0.9820   -3.0870 h1        1 MOL      0.016163
     58 H22        -7.4530   -3.4600   -2.4480 hc        1 MOL      0.116364
     59 H23        -5.7750   -3.3150   -3.0230 hc        1 MOL      0.116364
     60 H24        -5.2820   -3.5890   -5.1170 hn        1 MOL      0.334088
     61 H25        -6.5060   -4.0570   -6.3090 hn        1 MOL      0.334088
     62 N7         -7.5370   -1.7250   -0.4230 n         1 MOL     -0.313804
     63 C20        -7.3770   -1.6130    1.0380 c3        1 MOL     -0.226920
     64 C21        -6.4160   -2.6130    1.6930 c         1 MOL      0.621828
     65 O12        -5.8840   -3.5090    0.9840 o         1 MOL     -0.489104
     66 H26        -8.4290   -2.0120   -0.8010 hn        1 MOL      0.283971
     67 H27        -8.3640   -1.7050    1.4850 h1        1 MOL      0.113783
     68 H28        -6.8940   -0.6780    1.2950 h1        1 MOL      0.113783
     69 N8         -6.1960   -2.5380    3.0020 n         1 MOL     -0.469730
     70 C22        -5.5660   -3.6000    3.8140 c3        1 MOL     -0.254499
     71 C23        -4.0650   -3.5150    3.7860 c         1 MOL      0.689799
     72 O13        -3.4220   -4.5580    4.0050 o         1 MOL     -0.572068
     73 C24        -6.1130   -3.5130    5.2670 c3        1 MOL      0.505444
     74 C25        -5.7350   -2.2640    6.0780 c3        1 MOL     -0.334036
     75 O14        -7.5420   -3.6130    5.1880 oh        1 MOL     -0.633767
     76 H29        -6.5330   -1.7020    3.4460 hn        1 MOL      0.264530
     77 H30        -5.7640   -4.5140    3.2640 h1        1 MOL      0.135856
     78 H31        -5.6460   -4.3710    5.7610 h1        1 MOL      0.014881
     79 H32        -7.8080   -2.7910    4.7630 ho        1 MOL      0.366489
     80 H33        -6.5940   -2.0410    6.7100 hc        1 MOL      0.078549
     81 H34        -4.8930   -2.5270    6.7070 hc        1 MOL      0.078549
     82 H35        -5.5770   -1.4760    5.3410 hc        1 MOL      0.078549
     83 N9         -3.5700   -2.2480    3.7480 n         1 MOL     -0.485314
     84 C26        -2.1100   -1.8950    3.6930 c3        1 MOL      0.015549
     85 C27        -1.5860   -1.2130    2.4090 c         1 MOL      0.579851
     86 O15        -2.2430   -0.2070    2.0840 o         1 MOL     -0.499158
     87 C28        -1.7540   -1.1520    4.9750 c3        1 MOL      0.187445
     88 C29        -1.6440   -2.2410    6.0810 c3        1 MOL      0.047696
     89 C30        -0.4330   -0.3960    4.8390 c3        1 MOL     -0.254242
     90 C31        -2.0900   -1.8660    7.4980 c3        1 MOL     -0.077766
     91 H36        -4.2120   -1.4600    3.7470 hn        1 MOL      0.270826
     92 H37        -1.4980   -2.7890    3.7560 h1        1 MOL      0.024831
     93 H38        -2.5650   -0.4560    5.2380 hc        1 MOL      0.019469
     94 H39        -0.6330   -2.6340    6.1330 hc        1 MOL     -0.009860
     95 H40        -2.3320   -3.0690    5.8770 hc        1 MOL     -0.009860
     96 H41        -0.1520   -0.2440    5.8840 hc        1 MOL      0.052414
     97 H42         0.2910   -1.0130    4.3180 hc        1 MOL      0.052414
     98 H43        -0.7110    0.5770    4.4130 hc        1 MOL      0.052414
     99 H44        -2.1580   -2.7240    8.1720 hc        1 MOL      0.006715
    100 H45        -1.3010   -1.2490    7.9240 hc        1 MOL      0.006715
    101 H46        -3.0130   -1.2940    7.3880 hc        1 MOL      0.006715
    102 N10        -0.4470   -1.6440    1.7690 n         1 MOL     -0.550482
    103 C32         0.2800   -0.8260    0.7910 c3        1 MOL      0.170394
    104 C33         1.0670   -1.7770   -0.1570 c         1 MOL      0.381546
    105 O16         0.5640   -1.9040   -1.2730 o         1 MOL     -0.514519
    106 C34         1.2020    0.1190    1.5500 c3        1 MOL     -0.218306
    107 C35         2.0650    0.9770    0.6830 c         1 MOL      0.734901
    108 O17         1.8430    2.2420    0.6710 o         1 MOL     -0.802384
    109 O18         3.0160    0.4580    0.0310 o         1 MOL     -0.802384
    110 H47         0.0300   -2.4630    2.1150 hn        1 MOL      0.267073
    111 H48        -0.4580   -0.2770    0.2120 h1        1 MOL      0.082845
    112 H49         1.8360   -0.4700    2.2050 hc        1 MOL      0.089006
    113 H50         0.5530    0.7660    2.1490 hc        1 MOL      0.089006
    114 N11         2.1570   -2.3320    0.2090 n         1 MOL     -0.056251
    115 C36         2.7850   -3.4380   -0.4950 c3        1 MOL     -0.007328
    116 C37         4.2120   -3.6010   -0.1070 c         1 MOL      0.290418
    117 O19         4.5310   -3.5130    1.0830 o         1 MOL     -0.460153
    118 C38         1.9730   -4.7280   -0.2540 c3        1 MOL     -0.301580
    119 C39         2.2780   -5.7400   -1.3390 ca        1 MOL      0.193321
    120 C40         1.5260   -5.7810   -2.4660 ca        1 MOL     -0.170739
    121 C41         3.2970   -6.6880   -1.0880 ca        1 MOL     -0.170739
    122 C42         1.8400   -6.7490   -3.4840 ca        1 MOL     -0.139090
    123 C43         3.5820   -7.7000   -1.9890 ca        1 MOL     -0.139090
    124 C44         2.9210   -7.6340   -3.2600 ca        1 MOL     -0.114375
    125 H51         2.4660   -2.0440    1.1230 hn        1 MOL      0.173746
    126 H52         2.6670   -3.2110   -1.5460 h1        1 MOL      0.062839
    127 H53         0.9120   -4.4870   -0.2230 hc        1 MOL      0.105154
    128 H54         2.2220   -5.1280    0.7260 hc        1 MOL      0.105154
    129 H55         0.7260   -5.0610   -2.5820 ha        1 MOL      0.142503
    130 H56         3.8270   -6.6480   -0.1480 ha        1 MOL      0.142503
    131 H57         1.4270   -6.7030   -4.4730 ha        1 MOL      0.120829
    132 H58         4.3510   -8.4280   -1.7790 ha        1 MOL      0.120829
    133 H59         3.2170   -8.3020   -4.0640 ha        1 MOL      0.097009
    134 N12         5.1130   -3.8490   -1.0900 n         1 MOL     -0.010160
    135 C45         6.4930   -4.1430   -0.7790 c3        1 MOL      0.154134
    136 C46         7.1400   -3.2600    0.3000 c         1 MOL      0.167319
    137 O20         7.9470   -3.7720    1.1460 o         1 MOL     -0.476509
    138 C47         7.2070   -4.0170   -2.1170 c3        1 MOL      0.073379
    139 C48         6.1050   -4.3350   -3.2080 c3        1 MOL      0.016264
    140 C49         4.8360   -3.9250   -2.5240 c3        1 MOL     -0.322524
    141 H60         6.5670   -5.1770   -0.4410 h1        1 MOL      0.004510
    142 H61         7.5610   -3.0120   -2.3360 hc        1 MOL     -0.009172
    143 H62         8.0540   -4.6770   -2.2640 hc        1 MOL     -0.009172
    144 H63         6.3130   -3.8010   -4.1450 hc        1 MOL      0.022529
    145 H64         6.1250   -5.4160   -3.3620 hc        1 MOL      0.022529
    146 H65         4.6640   -2.9160   -2.9040 h1        1 MOL      0.134780
    147 H66         4.0220   -4.6050   -2.7850 h1        1 MOL      0.134780
    148 N13         6.7710   -1.9800    0.2490 n         1 MOL     -0.016248
    149 C50         7.3520   -0.9610    1.0640 c3        1 MOL     -0.337194
    150 C51         6.8950   -1.1070    2.5270 c         1 MOL      0.541830
    151 O21         7.5870   -0.6700    3.4000 o         1 MOL     -0.593681
    152 C52         6.9860    0.4790    0.5580 c3        1 MOL      0.046515
    153 C53         7.6530    0.8720   -0.7950 c3        1 MOL     -0.166756
    154 C54         6.9920    1.9440   -1.5740 c         1 MOL      0.699574
    155 O22         7.8310    2.6560   -2.1460 o         1 MOL     -0.717043
    156 O23         5.7830    2.1590   -1.6980 o         1 MOL     -0.717043
    157 H67         6.1720   -1.6550   -0.4900 hn        1 MOL      0.214668
    158 H68         8.4340   -1.0510    1.0150 h1        1 MOL      0.159239
    159 H69         7.2270    1.2300    1.3070 hc        1 MOL      0.037710
    160 H70         5.8970    0.4920    0.5020 hc        1 MOL      0.037710
    161 H71         7.6130    0.0210   -1.4690 hc        1 MOL      0.035246
    162 H72         8.7150    1.0160   -0.5860 hc        1 MOL      0.035246
    163 N14         5.7540   -1.5950    2.8230 n         1 MOL     -0.147533
    164 C55         5.2990   -1.6990    4.2330 c3        1 MOL     -0.257144
    165 H73         5.0940   -2.7430    4.4720 h1        1 MOL      0.102522
    166 H74         6.0770   -1.3220    4.8960 h1        1 MOL      0.102522
    167 H75         4.3910   -1.1110    4.3670 h1        1 MOL      0.102522
    168 H76         5.2030   -1.9170    2.0350 hn        1 MOL      0.195654
    169 Ca1         3.3990    2.7960   -1.2450 Ca        1 MOL      1.765050
    170 O24         4.3450    4.6660   -3.0830 oh        1 MOL     -0.876210
    171 H77         4.1900    5.6070   -3.1420 ho        1 MOL      0.415992
    172 H78         5.0000    4.4880   -3.7530 ho        1 MOL      0.415992
    173 O25         4.8120    3.7670    0.7230 oh        1 MOL     -0.876210
    174 H79         4.8650    4.6240    1.1490 ho        1 MOL      0.415992
    175 H80         5.7070    3.4350    0.7500 ho        1 MOL      0.415992
    176 O26         2.0460    4.9650   -0.7870 oh        1 MOL     -0.876210
    177 H81         2.2470    5.7170   -0.2380 ho        1 MOL      0.415992
    178 H82         1.0910    4.9100   -0.7790 ho        1 MOL      0.415992
    179 O27         2.9480    0.9020   -3.3700 oh        1 MOL     -0.876210
    180 H83         3.0570    0.4650   -4.2170 ho        1 MOL      0.415992
    181 H84         2.1950    1.4770   -3.4920 ho        1 MOL      0.415992
@<TRIPOS>BOND
     1    1    2 1   
     2    1    4 1   
     3    1    5 1   
     4    1    6 1   
     5    2    3 2   
     6    2    7 1   
     7    7    8 1   
     8    7   15 1   
     9    8    9 1   
    10    8   11 1   
    11    8   16 1   
    12    9   10 2   
    13    9   19 1   
    14   11   12 1   
    15   11   17 1   
    16   11   18 1   
    17   12   13 1   
    18   12   14 1   
    19   19   20 1   
    20   19   24 1   
    21   20   21 1   
    22   20   23 1   
    23   20   25 1   
    24   21   22 2   
    25   21   29 1   
    26   23   26 1   
    27   23   27 1   
    28   23   28 1   
    29   29   30 1   
    30   29   37 1   
    31   30   31 1   
    32   30   33 1   
    33   30   38 1   
    34   31   32 2   
    35   31   41 1   
    36   33   34 1   
    37   33   39 1   
    38   33   40 1   
    39   34   35 1   
    40   34   36 1   
    41   41   42 1   
    42   41   45 1   
    43   42   43 1   
    44   42   46 1   
    45   42   47 1   
    46   43   44 2   
    47   43   48 1   
    48   48   49 1   
    49   48   56 1   
    50   49   50 1   
    51   49   52 1   
    52   49   57 1   
    53   50   51 2   
    54   50   62 1   
    55   52   53 1   
    56   52   58 1   
    57   52   59 1   
    58   53   54 1   
    59   53   55 2   
    60   54   60 1   
    61   54   61 1   
    62   62   63 1   
    63   62   66 1   
    64   63   64 1   
    65   63   67 1   
    66   63   68 1   
    67   64   65 2   
    68   64   69 1   
    69   69   70 1   
    70   69   76 1   
    71   70   71 1   
    72   70   73 1   
    73   70   77 1   
    74   71   72 2   
    75   71   83 1   
    76   73   74 1   
    77   73   75 1   
    78   73   78 1   
    79   74   80 1   
    80   74   81 1   
    81   74   82 1   
    82   75   79 1   
    83   83   84 1   
    84   83   91 1   
    85   84   85 1   
    86   84   87 1   
    87   84   92 1   
    88   85   86 2   
    89   85  102 1   
    90   87   88 1   
    91   87   89 1   
    92   87   93 1   
    93   88   90 1   
    94   88   94 1   
    95   88   95 1   
    96   89   96 1   
    97   89   97 1   
    98   89   98 1   
    99   90   99 1   
   100   90  100 1   
   101   90  101 1   
   102  102  103 1   
   103  102  110 1   
   104  103  104 1   
   105  103  106 1   
   106  103  111 1   
   107  104  105 2   
   108  104  114 1   
   109  106  107 1   
   110  106  112 1   
   111  106  113 1   
   112  107  108 1   
   113  107  109 1   
   114  114  115 1   
   115  114  125 1   
   116  115  116 1   
   117  115  118 1   
   118  115  126 1   
   119  116  117 2   
   120  116  134 1   
   121  118  119 1   
   122  118  127 1   
   123  118  128 1   
   124  119  120 ar  
   125  119  121 ar  
   126  120  122 ar  
   127  120  129 1   
   128  121  123 ar  
   129  121  130 1   
   130  122  124 ar  
   131  122  131 1   
   132  123  124 ar  
   133  123  132 1   
   134  124  133 1   
   135  134  135 1   
   136  134  140 1   
   137  135  136 1   
   138  135  138 1   
   139  135  141 1   
   140  136  137 2   
   141  136  148 1   
   142  138  139 1   
   143  138  142 1   
   144  138  143 1   
   145  139  140 1   
   146  139  144 1   
   147  139  145 1   
   148  140  146 1   
   149  140  147 1   
   150  148  149 1   
   151  148  157 1   
   152  149  150 1   
   153  149  152 1   
   154  149  158 1   
   155  150  151 2   
   156  150  163 1   
   157  152  153 1   
   158  152  159 1   
   159  152  160 1   
   160  153  154 1   
   161  153  161 1   
   162  153  162 1   
   163  154  155 1   
   164  154  156 1   
   165  163  164 1   
   166  163  168 1   
   167  164  165 1   
   168  164  166 1   
   169  164  167 1   
   170  170  171 1   
   171  170  172 1   
   172  173  174 1   
   173  173  175 1   
   174  176  177 1   
   175  176  178 1   
   176  179  180 1   
   177  179  181 1   
@<TRIPOS>SUBSTRUCTURE
     1 MOL         1 TEMP              0 ****  ****    0 ROOT
