@<TRIPOS>MOLECULE
MOL
  192   187     1     0     0
SMALL
resp


@<TRIPOS>ATOM
      1 C1         -3.4250   -4.5400    2.5370 c3        1 MOL     -0.222862
      2 C2         -2.4260   -4.2990    1.4610 c         1 MOL      0.430869
      3 O1         -2.3120   -3.1250    1.0810 o         1 MOL     -0.504953
      4 H1         -4.4300   -4.4680    2.1210 hc        1 MOL      0.065555
      5 H2         -3.2760   -5.5350    2.9550 hc        1 MOL      0.065555
      6 H3         -3.3030   -3.7940    3.3210 hc        1 MOL      0.065555
      7 N1         -1.7290   -5.2080    0.8590 n         1 MOL     -0.197219
      8 C3         -0.7030   -5.0180   -0.1740 c3        1 MOL     -0.624395
      9 C4          0.6290   -4.3380    0.2940 c         1 MOL      0.617296
     10 O2          1.3580   -3.7020   -0.5300 o         1 MOL     -0.555022
     11 C5         -1.2040   -4.5610   -1.6180 c3        1 MOL      0.338112
     12 C6         -2.4350   -5.2930   -2.0530 c         1 MOL      0.494107
     13 O3         -2.3040   -6.4160   -2.6780 o         1 MOL     -0.677739
     14 O4         -3.5010   -4.6640   -2.0520 o         1 MOL     -0.677739
     15 H4         -2.1440   -6.1290    0.9970 hn        1 MOL      0.250921
     16 H5         -0.3390   -6.0290   -0.3360 h1        1 MOL      0.211592
     17 H6         -0.3840   -4.6900   -2.3270 hc        1 MOL      0.010628
     18 H7         -1.3790   -3.4880   -1.6630 hc        1 MOL      0.010628
     19 N2          1.0000   -4.4820    1.5560 n         1 MOL     -0.138140
     20 C7          2.1600   -3.9900    2.2650 c3        1 MOL     -0.396458
     21 C8          3.2710   -5.0510    2.5130 c         1 MOL      0.389063
     22 O5          3.0900   -6.2220    2.7520 o         1 MOL     -0.565524
     23 C9          1.7960   -3.1350    3.4930 c3        1 MOL      0.257194
     24 C10         1.2370   -3.9820    4.6010 c3        1 MOL      0.175072
     25 C11         0.8160   -2.0140    3.0100 c3        1 MOL     -0.588427
     26 C12         0.8860   -3.1990    5.9170 c3        1 MOL     -0.231790
     27 H8          0.3490   -5.0610    2.0670 hn        1 MOL      0.193210
     28 H9          2.6210   -3.2150    1.6590 h1        1 MOL      0.189680
     29 H10         2.7370   -2.6450    3.7510 hc        1 MOL      0.014119
     30 H11         2.0660   -4.6240    4.8730 hc        1 MOL     -0.013218
     31 H12         0.3070   -4.5160    4.4010 hc        1 MOL     -0.013218
     32 H13        -0.1550   -2.3660    2.6470 hc        1 MOL      0.169532
     33 H14         0.6020   -1.3960    3.8770 hc        1 MOL      0.169532
     34 H15         1.2820   -1.4890    2.1700 hc        1 MOL      0.169532
     35 H16         0.7840   -3.9590    6.6920 hc        1 MOL      0.045343
     36 H17         1.7360   -2.6030    6.2520 hc        1 MOL      0.045343
     37 H18         0.0300   -2.5290    5.8050 hc        1 MOL      0.045343
     38 N3          4.5400   -4.7050    2.5110 n         1 MOL     -0.016380
     39 C13         5.1250   -3.3790    2.2120 c3        1 MOL     -0.273085
     40 C14         5.1390   -2.9890    0.7650 c         1 MOL      0.459082
     41 O6          5.0310   -1.7940    0.4680 o         1 MOL     -0.513457
     42 C15         6.5570   -3.2270    2.6870 c3        1 MOL     -0.017723
     43 C16         6.7830   -3.8740    3.9980 c         1 MOL      0.637669
     44 O7          6.9090   -5.1190    4.0380 o         1 MOL     -0.708587
     45 O8          6.7420   -3.2070    5.0970 o         1 MOL     -0.708587
     46 H19         5.2090   -5.4500    2.5870 hn        1 MOL      0.183533
     47 H20         4.5330   -2.6090    2.7020 h1        1 MOL      0.143678
     48 H21         6.8660   -2.1960    2.8830 hc        1 MOL      0.013468
     49 H22         7.2300   -3.7180    1.9830 hc        1 MOL      0.013468
     50 N4          5.2260   -3.9010   -0.1820 n         1 MOL     -0.229087
     51 C17         5.3430   -3.6470   -1.6620 c3        1 MOL     -0.227687
     52 C18         6.6310   -2.8360   -1.9520 c         1 MOL      0.515937
     53 O9          7.6450   -3.0990   -1.2640 o         1 MOL     -0.540523
     54 H23         5.0730   -4.8960   -0.0430 hn        1 MOL      0.248321
     55 H24         4.5390   -3.0030   -2.0290 h1        1 MOL      0.112123
     56 H25         5.3070   -4.5880   -2.2050 h1        1 MOL      0.112123
     57 N5          6.5340   -1.7940   -2.8190 n         1 MOL     -0.514306
     58 C19         7.6800   -0.9230   -3.1460 c3        1 MOL      0.253892
     59 C20         8.1180    0.0090   -2.0170 c         1 MOL      0.312361
     60 O10         9.1970    0.5670   -2.1650 o         1 MOL     -0.554441
     61 C21         7.2190   -0.0370   -4.3070 c3        1 MOL     -0.530893
     62 C22         5.9390    0.8520   -4.0300 c         1 MOL      0.809684
     63 O11         5.1770    0.8080   -3.0180 o         1 MOL     -0.712475
     64 O12         5.5880    1.6290   -4.9560 o         1 MOL     -0.712475
     65 H26         5.6580   -1.6460   -3.2970 hn        1 MOL      0.311962
     66 H27         8.4980   -1.6000   -3.3710 h1        1 MOL      0.058102
     67 H28         7.1690   -0.6600   -5.1970 hc        1 MOL      0.122594
     68 H29         7.9550    0.7470   -4.4700 hc        1 MOL      0.122594
     69 N6          7.4490    0.1100   -0.8820 n         1 MOL      0.026122
     70 C23         7.6960    0.8980    0.3370 c3        1 MOL     -0.274693
     71 C24         7.1370    2.3120    0.2690 c         1 MOL      0.609051
     72 O13         7.5000    3.1330    1.1010 o         1 MOL     -0.580280
     73 H30         6.6190   -0.4580   -0.9070 hn        1 MOL      0.154706
     74 H31         8.7380    0.8980    0.6710 h1        1 MOL      0.118078
     75 H32         7.2860    0.4180    1.2250 h1        1 MOL      0.118078
     76 N7          6.3030    2.6030   -0.6940 n         1 MOL     -0.280753
     77 C25         5.6100    3.8130   -0.9390 c3        1 MOL     -0.003912
     78 C26         4.6760    4.3160    0.2470 c         1 MOL      0.223567
     79 O14         4.2270    5.5140    0.2140 o         1 MOL     -0.461621
     80 C27         6.5640    4.9470   -1.4360 c3        1 MOL      0.081028
     81 C28         7.2310    4.6260   -2.7710 c3        1 MOL     -0.154181
     82 C29         8.1530    5.6620   -3.3010 c         1 MOL      0.641995
     83 N8          8.5460    5.5900   -4.6030 n         1 MOL     -0.788289
     84 O15         8.6690    6.6200   -2.6900 o         1 MOL     -0.559221
     85 H33         6.0840    1.8870   -1.3710 hn        1 MOL      0.161052
     86 H34         4.9980    3.7030   -1.8340 h1        1 MOL      0.122507
     87 H35         7.3740    5.2580   -0.7790 hc        1 MOL      0.001471
     88 H36         5.9610    5.8350   -1.6450 hc        1 MOL      0.001471
     89 H37         6.4860    4.3630   -3.5180 hc        1 MOL      0.063589
     90 H38         7.7810    3.6860   -2.6670 hc        1 MOL      0.063589
     91 H39         8.2090    4.8600   -5.2150 hn        1 MOL      0.331805
     92 H40         8.7350    6.4640   -5.0740 hn        1 MOL      0.331805
     93 N9          4.4560    3.4700    1.2760 n         1 MOL     -0.001343
     94 C30         3.5020    3.8160    2.3600 c3        1 MOL     -0.295939
     95 C31         2.0270    3.5350    2.0840 c         1 MOL      0.634982
     96 O16         1.2330    4.2510    2.7320 o         1 MOL     -0.561356
     97 C32         3.9140    3.1490    3.6570 c3        1 MOL      0.391846
     98 C33         3.6200    1.6630    3.6220 c3        1 MOL     -0.248875
     99 C34         5.3510    3.3880    4.0470 c3        1 MOL     -0.248875
    100 H41         4.8200    2.5350    1.2390 hn        1 MOL      0.152651
    101 H42         3.6280    4.8850    2.5200 h1        1 MOL      0.116259
    102 H43         3.3230    3.5440    4.4840 hc        1 MOL     -0.047114
    103 H44         2.5590    1.5260    3.4350 hc        1 MOL      0.045348
    104 H45         4.2350    1.0810    2.9240 hc        1 MOL      0.045348
    105 H46         3.7510    1.3290    4.6540 hc        1 MOL      0.045348
    106 H47         5.9690    3.0290    3.2280 hc        1 MOL      0.045348
    107 H48         5.5870    4.4410    4.1800 hc        1 MOL      0.045348
    108 H49         5.6150    2.9000    4.9860 hc        1 MOL      0.045348
    109 N10         1.7050    2.5710    1.2780 n         1 MOL     -0.500299
    110 C35         0.3880    2.2720    0.9190 c3        1 MOL      0.122023
    111 C36        -0.3470    3.3530    0.1230 c         1 MOL      0.579445
    112 O17         0.1610    4.3290   -0.4940 o         1 MOL     -0.543769
    113 C37         0.4280    0.8960    0.3080 c3        1 MOL     -0.058240
    114 C38        -0.8190    0.0380    0.3250 c         1 MOL      0.414977
    115 N11        -0.8420   -1.0370   -0.4120 n         1 MOL     -0.305855
    116 O18        -1.7640    0.3620    1.0440 o         1 MOL     -0.540847
    117 H50         2.4160    1.8970    1.0450 hn        1 MOL      0.240779
    118 H51        -0.1640    2.2290    1.8620 h1        1 MOL      0.040799
    119 H52         1.2550    0.3180    0.7320 hc        1 MOL      0.043970
    120 H53         0.6810    1.0830   -0.7430 hc        1 MOL      0.043970
    121 H54         0.0100   -1.2750   -0.8900 hn        1 MOL      0.219693
    122 H55        -1.5490   -1.7160   -0.1600 hn        1 MOL      0.219693
    123 N12        -1.5880    3.0930    0.0450 n         1 MOL     -0.492158
    124 C39        -2.5600    3.9750   -0.5730 c3        1 MOL      0.141781
    125 C40        -3.8630    3.7620    0.1610 c         1 MOL      0.657726
    126 O19        -3.9620    3.0920    1.1360 o         1 MOL     -0.508727
    127 C41        -2.7040    3.5200   -1.9980 c3        1 MOL     -0.107799
    128 C42        -3.3150    2.1400   -2.2780 ca        1 MOL      0.225131
    129 C43        -4.6930    1.9950   -2.5670 ca        1 MOL     -0.291772
    130 C44        -2.4700    1.0390   -2.3650 ca        1 MOL     -0.291772
    131 C45        -5.2180    0.7520   -2.7590 ca        1 MOL      0.006339
    132 C46        -3.0240   -0.2150   -2.6890 ca        1 MOL      0.006339
    133 C47        -4.4100   -0.3960   -2.9170 ca        1 MOL     -0.105842
    134 O20        -4.9090   -1.6000   -3.2150 oh        1 MOL     -0.383406
    135 H56        -1.8950    2.1810    0.3690 hn        1 MOL      0.250692
    136 H57        -2.3150    5.0370   -0.5990 h1        1 MOL      0.080739
    137 H58        -1.7490    3.4650   -2.5280 hc        1 MOL      0.017909
    138 H59        -3.2970    4.2700   -2.5200 hc        1 MOL      0.017909
    139 H60        -5.3410    2.8550   -2.5750 ha        1 MOL      0.153785
    140 H61        -1.4210    1.1970   -2.1640 ha        1 MOL      0.153785
    141 H62        -6.2940    0.6280   -2.8230 ha        1 MOL      0.032866
    142 H63        -2.3660   -1.0790   -2.6820 ha        1 MOL      0.032866
    143 H64        -5.8680   -1.5870   -3.2100 ho        1 MOL      0.575466
    144 N13        -4.9290    4.3970   -0.3880 n         1 MOL     -0.787131
    145 C48        -6.2330    4.3410    0.2370 c3        1 MOL      0.329848
    146 C49        -7.2480    3.6610   -0.7430 c         1 MOL      0.276245
    147 O21        -7.6540    4.1720   -1.7880 o         1 MOL     -0.534771
    148 C50        -6.7890    5.7050    0.6210 c3        1 MOL      0.082878
    149 C51        -6.0970    6.4550    1.7800 c3        1 MOL     -0.136048
    150 C52        -7.0140    7.3490    2.6320 c         1 MOL      0.725448
    151 O22        -6.8950    8.5470    2.4140 o         1 MOL     -0.707695
    152 O23        -7.8650    6.9260    3.4290 o         1 MOL     -0.707695
    153 H65        -4.9430    5.0580   -1.1620 hn        1 MOL      0.385234
    154 H66        -6.1780    3.8140    1.1910 h1        1 MOL      0.019613
    155 H67        -7.7750    5.4750    1.0240 hc        1 MOL     -0.014675
    156 H68        -6.8440    6.3710   -0.2490 hc        1 MOL     -0.014675
    157 H69        -5.4260    7.1780    1.3220 hc        1 MOL     -0.006536
    158 H70        -5.5470    5.8680    2.5110 hc        1 MOL     -0.006536
    159 N14        -7.6360    2.3680   -0.5570 n         1 MOL     -0.070400
    160 C53        -7.2040    1.4790    0.5440 c3        1 MOL     -0.575826
    161 C54        -8.1250    1.5710    1.7960 c         1 MOL      0.710183
    162 O24        -9.3250    1.7860    1.7260 o         1 MOL     -0.550201
    163 C55        -7.0910    0.0250    0.1060 c3        1 MOL      0.341686
    164 C56        -8.3030   -0.5230   -0.6710 c3        1 MOL     -0.749582
    165 C57        -7.8400   -1.8750   -1.2740 c         1 MOL      1.190446
    166 O25        -7.9180   -2.9830   -0.5880 o         1 MOL     -0.932317
    167 O26        -7.2830   -1.8540   -2.4020 o         1 MOL     -0.932317
    168 H71        -8.3200    2.1100   -1.2480 hn        1 MOL      0.221844
    169 H72        -6.1330    1.5880    0.7240 h1        1 MOL      0.153418
    170 H73        -6.7450   -0.6260    0.9100 hc        1 MOL      0.000845
    171 H74        -6.2600    0.0300   -0.5980 hc        1 MOL      0.000845
    172 H75        -8.6300    0.1940   -1.4320 hc        1 MOL      0.188543
    173 H76        -9.1600   -0.6070   -0.0090 hc        1 MOL      0.188543
    174 N15        -7.5710    1.2850    2.9730 n         1 MOL     -0.380527
    175 C58        -8.2210    1.3320    4.3010 c3        1 MOL     -0.170266
    176 H77        -9.2950    1.1840    4.1840 h1        1 MOL      0.095195
    177 H78        -7.8130    0.5430    4.9340 h1        1 MOL      0.095195
    178 H79        -8.0360    2.3010    4.7630 h1        1 MOL      0.095195
    179 H80        -6.6290    0.9320    2.8760 hn        1 MOL      0.282669
    180 Ca1        -6.0930   -4.4400   -1.6660 Ca        1 MOL      1.631685
    181 O27        -8.0630   -4.4630   -3.7090 oh        1 MOL     -0.840998
    182 H81        -8.8460   -3.9300   -3.8370 ho        1 MOL      0.397273
    183 H82        -8.2470   -5.2770   -4.1850 ho        1 MOL      0.397273
    184 O28        -4.6130   -2.5940   -0.2320 oh        1 MOL     -0.840998
    185 H83        -4.7940   -1.6550   -0.3320 ho        1 MOL      0.397273
    186 H84        -3.8210   -2.6420    0.2930 ho        1 MOL      0.397273
    187 O29        -5.2290   -6.7940   -2.6340 oh        1 MOL     -0.840998
    188 H85        -5.4810   -7.7180   -2.6950 ho        1 MOL      0.397273
    189 H86        -4.2770   -6.8030   -2.6250 ho        1 MOL      0.397273
    190 O30        -5.3420   -4.2400   -4.3930 oh        1 MOL     -0.840998
    191 H87        -4.5280   -4.2010   -3.8980 ho        1 MOL      0.397273
    192 H88        -5.4340   -5.1500   -4.6530 ho        1 MOL      0.397273
@<TRIPOS>BOND
     1    1    2 1   
     2    1    4 1   
     3    1    5 1   
     4    1    6 1   
     5    2    3 2   
     6    2    7 1   
     7    7    8 1   
     8    7   15 1   
     9    8    9 1   
    10    8   11 1   
    11    8   16 1   
    12    9   10 2   
    13    9   19 1   
    14   11   12 1   
    15   11   17 1   
    16   11   18 1   
    17   12   13 1   
    18   12   14 1   
    19   19   20 1   
    20   19   27 1   
    21   20   21 1   
    22   20   23 1   
    23   20   28 1   
    24   21   22 2   
    25   21   38 1   
    26   23   24 1   
    27   23   25 1   
    28   23   29 1   
    29   24   26 1   
    30   24   30 1   
    31   24   31 1   
    32   25   32 1   
    33   25   33 1   
    34   25   34 1   
    35   26   35 1   
    36   26   36 1   
    37   26   37 1   
    38   38   39 1   
    39   38   46 1   
    40   39   40 1   
    41   39   42 1   
    42   39   47 1   
    43   40   41 2   
    44   40   50 1   
    45   42   43 1   
    46   42   48 1   
    47   42   49 1   
    48   43   44 1   
    49   43   45 1   
    50   50   51 1   
    51   50   54 1   
    52   51   52 1   
    53   51   55 1   
    54   51   56 1   
    55   52   53 2   
    56   52   57 1   
    57   57   58 1   
    58   57   65 1   
    59   58   59 1   
    60   58   61 1   
    61   58   66 1   
    62   59   60 2   
    63   59   69 1   
    64   61   62 1   
    65   61   67 1   
    66   61   68 1   
    67   62   63 1   
    68   62   64 1   
    69   69   70 1   
    70   69   73 1   
    71   70   71 1   
    72   70   74 1   
    73   70   75 1   
    74   71   72 2   
    75   71   76 1   
    76   76   77 1   
    77   76   85 1   
    78   77   78 1   
    79   77   80 1   
    80   77   86 1   
    81   78   79 2   
    82   78   93 1   
    83   80   81 1   
    84   80   87 1   
    85   80   88 1   
    86   81   82 1   
    87   81   89 1   
    88   81   90 1   
    89   82   83 1   
    90   82   84 2   
    91   83   91 1   
    92   83   92 1   
    93   93   94 1   
    94   93  100 1   
    95   94   95 1   
    96   94   97 1   
    97   94  101 1   
    98   95   96 2   
    99   95  109 1   
   100   97   98 1   
   101   97   99 1   
   102   97  102 1   
   103   98  103 1   
   104   98  104 1   
   105   98  105 1   
   106   99  106 1   
   107   99  107 1   
   108   99  108 1   
   109  109  110 1   
   110  109  117 1   
   111  110  111 1   
   112  110  113 1   
   113  110  118 1   
   114  111  112 2   
   115  111  123 1   
   116  113  114 1   
   117  113  119 1   
   118  113  120 1   
   119  114  115 1   
   120  114  116 2   
   121  115  121 1   
   122  115  122 1   
   123  123  124 1   
   124  123  135 1   
   125  124  125 1   
   126  124  127 1   
   127  124  136 1   
   128  125  126 2   
   129  125  144 1   
   130  127  128 1   
   131  127  137 1   
   132  127  138 1   
   133  128  129 ar  
   134  128  130 ar  
   135  129  131 ar  
   136  129  139 1   
   137  130  132 ar  
   138  130  140 1   
   139  131  133 ar  
   140  131  141 1   
   141  132  133 ar  
   142  132  142 1   
   143  133  134 1   
   144  134  143 1   
   145  144  145 1   
   146  144  153 1   
   147  145  146 1   
   148  145  148 1   
   149  145  154 1   
   150  146  147 2   
   151  146  159 1   
   152  148  149 1   
   153  148  155 1   
   154  148  156 1   
   155  149  150 1   
   156  149  157 1   
   157  149  158 1   
   158  150  151 1   
   159  150  152 1   
   160  159  160 1   
   161  159  168 1   
   162  160  161 1   
   163  160  163 1   
   164  160  169 1   
   165  161  162 2   
   166  161  174 1   
   167  163  164 1   
   168  163  170 1   
   169  163  171 1   
   170  164  165 1   
   171  164  172 1   
   172  164  173 1   
   173  165  166 1   
   174  165  167 1   
   175  174  175 1   
   176  174  179 1   
   177  175  176 1   
   178  175  177 1   
   179  175  178 1   
   180  181  182 1   
   181  181  183 1   
   182  184  185 1   
   183  184  186 1   
   184  187  188 1   
   185  187  189 1   
   186  190  191 1   
   187  190  192 1   
@<TRIPOS>SUBSTRUCTURE
     1 MOL         1 TEMP              0 ****  ****    0 ROOT
