@<TRIPOS>MOLECULE
MOL
  198   191     1     0     0
SMALL
resp


@<TRIPOS>ATOM
      1 C1          4.9880   -0.3160    6.3730 c3        1 MOL     -0.217988
      2 C2          4.6640   -0.1710    4.8610 c         1 MOL      0.734259
      3 O1          4.4620    0.9680    4.3940 o         1 MOL     -0.574107
      4 H1          4.8650   -1.3570    6.6720 hc        1 MOL      0.057040
      5 H2          6.0160   -0.0050    6.5570 hc        1 MOL      0.057040
      6 H3          4.3090    0.3110    6.9520 hc        1 MOL      0.057040
      7 N1          4.6610   -1.2590    4.0700 n         1 MOL     -0.754916
      8 C3          4.6720   -1.1250    2.5500 c3        1 MOL      0.668102
      9 C4          3.3920   -0.6170    1.9300 c         1 MOL     -0.119658
     10 O2          3.2040   -0.9140    0.7560 o         1 MOL     -0.370225
     11 C5          5.2210   -2.4180    1.9330 c3        1 MOL     -0.314071
     12 C6          6.4840   -2.9960    2.4600 c         1 MOL      0.701760
     13 O3          7.4710   -3.2740    1.6860 o         1 MOL     -0.688142
     14 O4          6.5430   -3.3350    3.6660 o         1 MOL     -0.688142
     15 H4          4.9960   -2.1050    4.5260 hn        1 MOL      0.341612
     16 H5          5.3740   -0.3230    2.3230 h1        1 MOL      0.005330
     17 H6          5.3710   -2.2620    0.8640 hc        1 MOL      0.049571
     18 H7          4.4140   -3.1600    1.9130 hc        1 MOL      0.049571
     19 N2          2.4400   -0.0820    2.6960 n         1 MOL     -0.129996
     20 C7          1.0300   -0.0260    2.4210 c3        1 MOL     -0.006738
     21 C8          0.3790    1.3700    2.5210 c         1 MOL      0.421491
     22 O5          0.4520    2.0530    3.5490 o         1 MOL     -0.510824
     23 C9          0.2710   -1.0020    3.3660 c3        1 MOL     -0.285397
     24 C10         0.6650   -2.4050    3.1520 c3        1 MOL      0.230589
     25 C11        -0.1050   -3.4240    4.0170 c3        1 MOL     -0.189889
     26 C12         0.2140   -4.8190    3.4550 c3        1 MOL      0.060623
     27 N3         -0.4850   -5.8300    4.1600 n4        1 MOL     -0.304875
     28 H8          2.7050    0.2750    3.6080 hn        1 MOL      0.198516
     29 H9          0.8610   -0.3590    1.3920 h1        1 MOL      0.194751
     30 H10        -0.7970   -0.9520    3.1330 hc        1 MOL      0.097748
     31 H11         0.3450   -0.7700    4.4280 hc        1 MOL      0.097748
     32 H12         1.7240   -2.5370    3.3900 hc        1 MOL     -0.041166
     33 H13         0.5090   -2.7010    2.1100 hc        1 MOL     -0.041166
     34 H14        -1.1720   -3.2090    3.9180 hc        1 MOL      0.067667
     35 H15         0.1880   -3.2620    5.0520 hc        1 MOL      0.067667
     36 H16         1.2920   -4.9890    3.3880 hx        1 MOL      0.075626
     37 H17        -0.0860   -4.8870    2.4160 hx        1 MOL      0.075626
     38 H18        -0.1940   -5.7530    5.1240 hn        1 MOL      0.312685
     39 H19        -1.4710   -5.7130    4.3360 hn        1 MOL      0.312685
     40 H20        -0.3560   -6.7900    3.8980 hn        1 MOL      0.312685
     41 N4         -0.4940    1.8010    1.6040 n         1 MOL     -0.075863
     42 C13        -1.0090    1.2060    0.3100 c3        1 MOL     -0.662079
     43 C14        -1.4690   -0.2990    0.3550 c         1 MOL      0.494918
     44 O6         -0.8880   -1.1930   -0.3310 o         1 MOL     -0.644985
     45 C15         0.0010    1.4600   -0.8470 c3        1 MOL      0.163807
     46 C16         0.1870    2.8990   -1.2420 c         1 MOL      0.402789
     47 O7         -0.7230    3.7770   -0.9920 o         1 MOL     -0.654613
     48 O8          1.1520    3.1100   -2.0000 o         1 MOL     -0.654613
     49 H21        -0.7070    2.7690    1.7890 hn        1 MOL      0.165519
     50 H22        -1.9100    1.7690    0.0910 h1        1 MOL      0.205967
     51 H23        -0.5750    1.1090   -1.7020 hc        1 MOL      0.079768
     52 H24         0.9100    0.8630   -0.7170 hc        1 MOL      0.079768
     53 N5         -2.4810   -0.7000    1.1370 n         1 MOL      0.059390
     54 C17        -3.4680    0.1390    1.8360 c3        1 MOL     -0.059627
     55 C18        -4.3670   -0.6850    2.7630 c         1 MOL      0.419212
     56 O9         -4.2390   -1.8840    2.8800 o         1 MOL     -0.568048
     57 H25        -2.7620   -1.6700    1.1440 hn        1 MOL      0.038659
     58 H26        -4.0440    0.6340    1.0490 h1        1 MOL      0.061559
     59 H27        -3.0070    0.9000    2.4530 h1        1 MOL      0.061559
     60 N6         -5.2750   -0.0460    3.4560 n         1 MOL     -0.303403
     61 C19        -5.6050    1.3710    3.3180 c3        1 MOL     -0.054276
     62 C20        -6.5230    1.6050    2.1040 c         1 MOL      0.542205
     63 O10        -6.2280    2.4990    1.3340 o         1 MOL     -0.596632
     64 C21        -6.3040    1.9160    4.5620 c3        1 MOL     -0.191197
     65 C22        -7.4750    1.0910    5.0030 c         1 MOL      0.631092
     66 O11        -8.3260    1.6880    5.7150 o         1 MOL     -0.663289
     67 O12        -7.6050   -0.1040    4.6070 o         1 MOL     -0.663289
     68 H28        -5.8840   -0.6220    4.0020 hn        1 MOL      0.265866
     69 H29        -4.6880    1.9460    3.2500 h1        1 MOL      0.071538
     70 H30        -6.5270    2.9780    4.4870 hc        1 MOL      0.065958
     71 H31        -5.5410    1.7910    5.3340 hc        1 MOL      0.065958
     72 N7         -7.5020    0.7760    1.8640 n         1 MOL     -0.230709
     73 C23        -8.1120    0.7140    0.4640 c3        1 MOL     -0.152259
     74 C24        -7.2200   -0.3010   -0.3640 c         1 MOL      0.613499
     75 O13        -6.7540   -1.2830    0.2150 o         1 MOL     -0.473674
     76 H32        -7.6840    0.0490    2.5470 hn        1 MOL      0.230773
     77 H33        -8.1010    1.7330    0.0510 h1        1 MOL      0.090523
     78 H34        -9.1490    0.3890    0.5020 h1        1 MOL      0.090523
     79 N8         -7.0450   -0.1940   -1.6720 n         1 MOL     -0.523928
     80 C25        -6.3820   -1.2590   -2.4690 c3        1 MOL      0.039975
     81 C26        -4.9600   -1.5430   -1.9390 c         1 MOL      0.303295
     82 O14        -4.1360   -0.6410   -1.6580 o         1 MOL     -0.416177
     83 C27        -6.3240   -0.9730   -3.9800 c3        1 MOL      0.370182
     84 C28        -5.5230    0.2830   -4.4270 c3        1 MOL     -0.233879
     85 O15        -7.6800   -0.7630   -4.3780 oh        1 MOL     -0.620385
     86 H35        -7.4740    0.6030   -2.1220 hn        1 MOL      0.337556
     87 H36        -6.8880   -2.2190   -2.4610 h1        1 MOL      0.052074
     88 H37        -5.9200   -1.8340   -4.5230 h1        1 MOL      0.003107
     89 H38        -7.8560   -1.4290   -5.0420 ho        1 MOL      0.384076
     90 H39        -5.7230    1.1490   -3.7990 hc        1 MOL      0.062859
     91 H40        -4.4700    0.0750   -4.2200 hc        1 MOL      0.062859
     92 H41        -5.6610    0.4990   -5.4820 hc        1 MOL      0.062859
     93 N9         -4.6620   -2.8510   -1.7800 n         1 MOL     -0.639066
     94 C29        -3.3940   -3.3910   -1.1910 c3        1 MOL      0.231974
     95 C30        -2.3310   -3.6530   -2.3530 c         1 MOL      0.397586
     96 O16        -1.9540   -4.7600   -2.6800 o         1 MOL     -0.503143
     97 C31        -3.5480   -4.5910   -0.1760 c3        1 MOL     -0.019604
     98 C32        -4.7660   -4.6320    0.7170 c3        1 MOL      0.264108
     99 C33        -2.3310   -4.7080    0.7240 c3        1 MOL     -0.370935
    100 C34        -6.0630   -4.9570    0.0070 c3        1 MOL     -0.386431
    101 H42        -5.3560   -3.5600   -1.9560 hn        1 MOL      0.343220
    102 H43        -2.9850   -2.6010   -0.5580 h1        1 MOL      0.310588
    103 H44        -3.6750   -5.5070   -0.7490 hc        1 MOL      0.003870
    104 H45        -4.7890   -3.6620    1.2160 hc        1 MOL     -0.023643
    105 H46        -4.6470   -5.3920    1.4930 hc        1 MOL     -0.023643
    106 H47        -1.4730   -4.6190    0.0490 hc        1 MOL      0.074858
    107 H48        -2.3160   -3.9100    1.4660 hc        1 MOL      0.074858
    108 H49        -2.2990   -5.7320    1.1050 hc        1 MOL      0.074858
    109 H50        -6.8040   -4.1520    0.0420 hc        1 MOL      0.087410
    110 H51        -5.9190   -5.3510   -1.0000 hc        1 MOL      0.087410
    111 H52        -6.6240   -5.6600    0.6300 hc        1 MOL      0.087410
    112 N10        -2.1190   -2.5330   -3.0920 n         1 MOL     -0.184209
    113 C35        -1.1640   -2.5460   -4.2660 c3        1 MOL     -0.212060
    114 C36         0.3050   -2.6090   -3.9180 c         1 MOL      0.481983
    115 O17         1.1570   -3.1360   -4.6180 o         1 MOL     -0.549220
    116 C37        -1.3320   -1.4070   -5.2450 c3        1 MOL      0.217288
    117 C38        -1.3020    0.0050   -4.5530 c3        1 MOL     -0.098139
    118 O18        -2.6580   -1.4920   -5.7590 oh        1 MOL     -0.625425
    119 H53        -2.6840   -1.7130   -2.9350 hn        1 MOL      0.215716
    120 H54        -1.3140   -3.4000   -4.9360 h1        1 MOL      0.125348
    121 H55        -0.5960   -1.4480   -6.0430 h1        1 MOL      0.070371
    122 H56        -2.8490   -2.4060   -5.9730 ho        1 MOL      0.390589
    123 H57        -1.2920    0.8690   -5.2200 hc        1 MOL      0.058597
    124 H58        -2.1320    0.0070   -3.8370 hc        1 MOL      0.058597
    125 H59        -0.4100    0.1450   -3.9430 hc        1 MOL      0.058597
    126 N11         0.5750   -2.3420   -2.6600 n         1 MOL     -0.306426
    127 C39         1.9360   -2.4630   -1.9780 c3        1 MOL      0.279726
    128 C40         2.9560   -1.4630   -2.5160 c         1 MOL      0.206812
    129 O19         2.7130   -0.8570   -3.5800 o         1 MOL     -0.452338
    130 C41         2.4770   -3.9350   -1.9850 c3        1 MOL      0.266511
    131 C42         1.4070   -4.9170   -1.7080 c3        1 MOL     -0.330906
    132 O20         3.4130   -4.0250   -0.9680 oh        1 MOL     -0.692912
    133 H60        -0.1600   -2.0970   -2.0060 hn        1 MOL      0.103083
    134 H61         1.8070   -2.2080   -0.9140 h1        1 MOL      0.049741
    135 H62         2.9940   -4.1730   -2.9180 h1        1 MOL      0.080351
    136 H63         2.9800   -4.2860   -0.1500 ho        1 MOL      0.398171
    137 H64         0.6720   -4.6810   -0.9330 hc        1 MOL      0.083641
    138 H65         0.7850   -4.9990   -2.6070 hc        1 MOL      0.083641
    139 H66         1.7410   -5.9230   -1.4310 hc        1 MOL      0.083641
    140 N12         4.1270   -1.3500   -1.8310 n         1 MOL     -0.061447
    141 C43         5.2490   -0.4860   -2.3450 c3        1 MOL     -0.122541
    142 C44         5.1200    0.9730   -2.0110 c         1 MOL      0.499428
    143 O21         5.9230    1.7720   -2.5740 o         1 MOL     -0.609370
    144 C45         6.6260   -1.1330   -1.9670 c3        1 MOL     -0.034765
    145 C46         7.0040   -2.4320   -2.7100 c3        1 MOL      0.199587
    146 C47         7.7560   -3.5060   -1.9630 c3        1 MOL     -0.305478
    147 C48         6.8120   -4.4280   -1.2860 c3        1 MOL      0.194504
    148 N13         7.5560   -5.3670   -0.4260 n4        1 MOL     -0.453131
    149 H67         4.1770   -1.9170   -0.9960 hn        1 MOL      0.109784
    150 H68         5.2380   -0.4500   -3.4340 h1        1 MOL      0.111776
    151 H69         6.5900   -1.4720   -0.9290 hc        1 MOL      0.042899
    152 H70         7.4350   -0.3980   -2.0420 hc        1 MOL      0.042899
    153 H71         7.4830   -2.0970   -3.6360 hc        1 MOL     -0.022817
    154 H72         6.0420   -2.7900   -3.1100 hc        1 MOL     -0.022817
    155 H73         8.5180   -3.0490   -1.3360 hc        1 MOL      0.080847
    156 H74         8.2210   -4.0880   -2.7630 hc        1 MOL      0.080847
    157 H75         6.2280   -4.8800   -2.0890 hx        1 MOL      0.043949
    158 H76         6.1500   -3.8520   -0.6490 hx        1 MOL      0.043949
    159 H77         7.9210   -4.7480    0.2780 hn        1 MOL      0.332295
    160 H78         7.0070   -6.1220   -0.0370 hn        1 MOL      0.332295
    161 H79         8.3100   -5.8040   -0.9340 hn        1 MOL      0.332295
    162 N14         4.2450    1.4010   -1.1380 n         1 MOL     -0.215471
    163 C49         4.3460    2.6910   -0.4930 c3        1 MOL     -0.066518
    164 C50         5.8080    2.9280    0.1030 c         1 MOL      0.419307
    165 O22         6.2260    2.1850    0.9900 o         1 MOL     -0.507260
    166 C51         3.2490    2.8280    0.5420 c3        1 MOL      0.119375
    167 C52         3.1560    4.1750    1.3910 c3        1 MOL     -0.346139
    168 C53         2.7780    5.3460    0.4240 c         1 MOL      0.783227
    169 O23         3.6050    6.0590   -0.1520 o         1 MOL     -0.771790
    170 O24         1.5600    5.7180    0.4700 o         1 MOL     -0.771790
    171 H80         3.5480    0.6940   -0.9490 hn        1 MOL      0.217063
    172 H81         4.2090    3.4760   -1.2400 h1        1 MOL      0.103299
    173 H82         3.2440    2.0340    1.2850 hc        1 MOL      0.021386
    174 H83         2.2800    2.8130    0.0340 hc        1 MOL      0.021386
    175 H84         4.1120    4.3270    1.8950 hc        1 MOL      0.106808
    176 H85         2.3890    4.1050    2.1540 hc        1 MOL      0.106808
    177 N15         6.5030    3.9990   -0.3390 n         1 MOL     -0.132085
    178 C54         7.8160    4.4390    0.0550 c3        1 MOL     -0.239953
    179 H86         7.8700    5.5260   -0.0130 h1        1 MOL      0.098448
    180 H87         8.0100    4.1290    1.0810 h1        1 MOL      0.098448
    181 H88         8.5620    3.9970   -0.6060 h1        1 MOL      0.098448
    182 H89         6.0810    4.5350   -1.0920 hn        1 MOL      0.244060
    183 Ca1        -0.6760    6.2960   -0.6100 Ca        1 MOL      1.787194
    184 O25        -2.9350    5.7910   -2.2330 oh        1 MOL     -0.894632
    185 H90        -3.2420    6.1820   -3.0470 ho        1 MOL      0.440457
    186 H91        -3.4650    4.9970   -2.1260 ho        1 MOL      0.440457
    187 O26         0.4630    7.9190    1.2790 oh        1 MOL     -0.894632
    188 H92         1.1600    7.2880    1.1090 ho        1 MOL      0.440457
    189 H93         0.8840    8.7830    1.1910 ho        1 MOL      0.440457
    190 O27        -1.5390    8.4440   -2.0000 oh        1 MOL     -0.894632
    191 H94        -2.4740    8.6180   -2.0770 ho        1 MOL      0.440457
    192 H95        -1.1430    8.8570   -2.7660 ho        1 MOL      0.440457
    193 O28        -0.0880    5.9640   -3.2700 oh        1 MOL     -0.894632
    194 H96         0.3060    5.1080   -3.3940 ho        1 MOL      0.440457
    195 H97        -0.3330    6.2410   -4.1540 ho        1 MOL      0.440457
    196 O29         1.7070    7.5230   -1.5630 oh        1 MOL     -0.894632
    197 H98         2.2870    7.1650   -0.8910 ho        1 MOL      0.440457
    198 H99         1.9970    7.1290   -2.3820 ho        1 MOL      0.440457
@<TRIPOS>BOND
     1    1    2 1   
     2    1    4 1   
     3    1    5 1   
     4    1    6 1   
     5    2    3 2   
     6    2    7 1   
     7    7    8 1   
     8    7   15 1   
     9    8    9 1   
    10    8   11 1   
    11    8   16 1   
    12    9   10 2   
    13    9   19 1   
    14   11   12 1   
    15   11   17 1   
    16   11   18 1   
    17   12   13 1   
    18   12   14 1   
    19   19   20 1   
    20   19   28 1   
    21   20   21 1   
    22   20   23 1   
    23   20   29 1   
    24   21   22 2   
    25   21   41 1   
    26   23   24 1   
    27   23   30 1   
    28   23   31 1   
    29   24   25 1   
    30   24   32 1   
    31   24   33 1   
    32   25   26 1   
    33   25   34 1   
    34   25   35 1   
    35   26   27 1   
    36   26   36 1   
    37   26   37 1   
    38   27   38 1   
    39   27   39 1   
    40   27   40 1   
    41   41   42 1   
    42   41   49 1   
    43   42   43 1   
    44   42   45 1   
    45   42   50 1   
    46   43   44 2   
    47   43   53 1   
    48   45   46 1   
    49   45   51 1   
    50   45   52 1   
    51   46   47 1   
    52   46   48 1   
    53   53   54 1   
    54   53   57 1   
    55   54   55 1   
    56   54   58 1   
    57   54   59 1   
    58   55   56 2   
    59   55   60 1   
    60   60   61 1   
    61   60   68 1   
    62   61   62 1   
    63   61   64 1   
    64   61   69 1   
    65   62   63 2   
    66   62   72 1   
    67   64   65 1   
    68   64   70 1   
    69   64   71 1   
    70   65   66 1   
    71   65   67 1   
    72   72   73 1   
    73   72   76 1   
    74   73   74 1   
    75   73   77 1   
    76   73   78 1   
    77   74   75 2   
    78   74   79 1   
    79   79   80 1   
    80   79   86 1   
    81   80   81 1   
    82   80   83 1   
    83   80   87 1   
    84   81   82 2   
    85   81   93 1   
    86   83   84 1   
    87   83   85 1   
    88   83   88 1   
    89   84   90 1   
    90   84   91 1   
    91   84   92 1   
    92   85   89 1   
    93   93   94 1   
    94   93  101 1   
    95   94   95 1   
    96   94   97 1   
    97   94  102 1   
    98   95   96 2   
    99   95  112 1   
   100   97   98 1   
   101   97   99 1   
   102   97  103 1   
   103   98  100 1   
   104   98  104 1   
   105   98  105 1   
   106   99  106 1   
   107   99  107 1   
   108   99  108 1   
   109  100  109 1   
   110  100  110 1   
   111  100  111 1   
   112  112  113 1   
   113  112  119 1   
   114  113  114 1   
   115  113  116 1   
   116  113  120 1   
   117  114  115 2   
   118  114  126 1   
   119  116  117 1   
   120  116  118 1   
   121  116  121 1   
   122  117  123 1   
   123  117  124 1   
   124  117  125 1   
   125  118  122 1   
   126  126  127 1   
   127  126  133 1   
   128  127  128 1   
   129  127  130 1   
   130  127  134 1   
   131  128  129 2   
   132  128  140 1   
   133  130  131 1   
   134  130  132 1   
   135  130  135 1   
   136  131  137 1   
   137  131  138 1   
   138  131  139 1   
   139  132  136 1   
   140  140  141 1   
   141  140  149 1   
   142  141  142 1   
   143  141  144 1   
   144  141  150 1   
   145  142  143 2   
   146  142  162 1   
   147  144  145 1   
   148  144  151 1   
   149  144  152 1   
   150  145  146 1   
   151  145  153 1   
   152  145  154 1   
   153  146  147 1   
   154  146  155 1   
   155  146  156 1   
   156  147  148 1   
   157  147  157 1   
   158  147  158 1   
   159  148  159 1   
   160  148  160 1   
   161  148  161 1   
   162  162  163 1   
   163  162  171 1   
   164  163  164 1   
   165  163  166 1   
   166  163  172 1   
   167  164  165 2   
   168  164  177 1   
   169  166  167 1   
   170  166  173 1   
   171  166  174 1   
   172  167  168 1   
   173  167  175 1   
   174  167  176 1   
   175  168  169 1   
   176  168  170 1   
   177  177  178 1   
   178  177  182 1   
   179  178  179 1   
   180  178  180 1   
   181  178  181 1   
   182  184  185 1   
   183  184  186 1   
   184  187  188 1   
   185  187  189 1   
   186  190  191 1   
   187  190  192 1   
   188  193  194 1   
   189  193  195 1   
   190  196  197 1   
   191  196  198 1   
@<TRIPOS>SUBSTRUCTURE
     1 MOL         1 TEMP              0 ****  ****    0 ROOT
