@<TRIPOS>MOLECULE
MOL
  192   187     1     0     0
SMALL
resp


@<TRIPOS>ATOM
      1 C1         -4.9850   -1.0670    2.9460 c3        1 MOL     -0.022520
      2 C2         -3.9850   -1.6670    1.9960 c         1 MOL      0.512146
      3 O1         -3.2590   -0.9310    1.3530 o         1 MOL     -0.482008
      4 H1         -5.9220   -0.8850    2.4200 hc        1 MOL     -0.006248
      5 H2         -5.1600   -1.7560    3.7720 hc        1 MOL     -0.006248
      6 H3         -4.5980   -0.1250    3.3340 hc        1 MOL     -0.006248
      7 N1         -3.9850   -2.9870    1.8690 n         1 MOL     -0.405312
      8 C3         -3.3200   -3.8760    0.9020 c3        1 MOL     -0.488760
      9 C4         -1.8110   -3.9300    1.1380 c         1 MOL      1.015325
     10 O2         -0.9840   -3.6570    0.2840 o         1 MOL     -0.575252
     11 C5         -3.7060   -3.4270   -0.4810 c3        1 MOL     -0.047864
     12 C6         -5.1850   -3.1510   -0.7860 c         1 MOL      0.790945
     13 O3         -5.5620   -2.8420   -1.9620 o         1 MOL     -0.822826
     14 O4         -6.1160   -3.2740    0.0890 o         1 MOL     -0.822826
     15 H4         -4.5600   -3.3770    2.5900 hn        1 MOL      0.326968
     16 H5         -3.7580   -4.8630    1.0420 h1        1 MOL      0.169571
     17 H6         -3.3490   -4.0680   -1.2810 hc        1 MOL      0.075749
     18 H7         -3.1620   -2.4840   -0.6150 hc        1 MOL      0.075749
     19 N2         -1.4430   -4.4640    2.3190 n         1 MOL     -0.690285
     20 C7         -0.0250   -4.9160    2.6370 c3        1 MOL     -0.135331
     21 C8          0.5270   -6.1940    1.8580 c         1 MOL      0.596568
     22 O5         -0.1590   -7.2130    1.6610 o         1 MOL     -0.580808
     23 C9          0.2140   -5.2330    4.1380 c3        1 MOL      0.214612
     24 C10        -0.7830   -6.3790    4.6720 c3        1 MOL      0.072181
     25 C11        -0.1710   -3.9680    4.9260 c3        1 MOL     -0.089781
     26 C12        -0.5330   -6.7480    6.1680 c3        1 MOL     -0.129257
     27 H8         -2.1900   -4.6110    2.9830 hn        1 MOL      0.331793
     28 H9          0.6810   -4.1060    2.4480 h1        1 MOL      0.128243
     29 H10         1.2630   -5.4600    4.3500 hc        1 MOL     -0.004186
     30 H11        -0.5580   -7.2390    4.0350 hc        1 MOL     -0.027830
     31 H12        -1.8010   -6.0360    4.5020 hc        1 MOL     -0.027830
     32 H13        -1.2280   -3.8210    4.7000 hc        1 MOL      0.007627
     33 H14         0.0770   -4.1420    5.9720 hc        1 MOL      0.007627
     34 H15         0.3880   -3.1040    4.5730 hc        1 MOL      0.007627
     35 H16         0.5280   -6.9170    6.3490 hc        1 MOL      0.019469
     36 H17        -0.9870   -6.0430    6.8600 hc        1 MOL      0.019469
     37 H18        -0.9740   -7.7290    6.3490 hc        1 MOL      0.019469
     38 N3          1.7450   -6.1420    1.2880 n         1 MOL     -0.491708
     39 C13         2.5190   -4.9800    0.8650 c3        1 MOL      0.012009
     40 C14         3.3070   -5.3410   -0.4560 c         1 MOL      0.707517
     41 O6          3.9860   -6.3720   -0.5040 o         1 MOL     -0.575250
     42 C15         3.4250   -4.4920    1.9270 c3        1 MOL     -0.292574
     43 C16         4.3380   -3.3610    1.4480 c         1 MOL      0.675078
     44 O7          5.5230   -3.3310    1.7920 o         1 MOL     -0.677571
     45 O8          3.9090   -2.4660    0.6050 o         1 MOL     -0.677571
     46 H19         1.8970   -7.0900    0.9760 hn        1 MOL      0.284554
     47 H20         1.8500   -4.1830    0.5460 h1        1 MOL      0.038916
     48 H21         4.0540   -5.2910    2.3240 hc        1 MOL      0.080461
     49 H22         2.7290   -4.0760    2.6570 hc        1 MOL      0.080461
     50 N4          3.0700   -4.6130   -1.5360 n         1 MOL     -0.475204
     51 C17         3.3820   -4.9670   -2.9410 c3        1 MOL     -0.121395
     52 C18         4.6050   -4.2090   -3.4910 c         1 MOL      0.649142
     53 O9          5.2900   -4.6790   -4.4030 o         1 MOL     -0.614913
     54 H23         2.4660   -3.8110   -1.3950 hn        1 MOL      0.331760
     55 H24         2.5470   -4.7300   -3.6130 h1        1 MOL      0.084134
     56 H25         3.5110   -6.0330   -3.1260 h1        1 MOL      0.084134
     57 N5          4.9230   -3.1130   -2.8070 n         1 MOL     -0.472988
     58 C19         5.9750   -2.2090   -3.1890 c3        1 MOL      0.093208
     59 C20         6.9870   -1.7850   -2.1360 c         1 MOL      0.380208
     60 O10         8.1160   -1.4220   -2.5710 o         1 MOL     -0.590572
     61 C21         5.3470   -0.9470   -3.8210 c3        1 MOL     -0.337846
     62 C22         4.2390   -0.3430   -2.8830 c         1 MOL      0.760674
     63 O11         3.0420   -0.7270   -3.1140 o         1 MOL     -0.691309
     64 O12         4.5530    0.4210   -1.9560 o         1 MOL     -0.691309
     65 H26         4.2950   -2.7610   -2.0930 hn        1 MOL      0.291418
     66 H27         6.4830   -2.6790   -4.0300 h1        1 MOL      0.108486
     67 H28         4.8490   -1.2380   -4.7450 hc        1 MOL      0.070444
     68 H29         6.1540   -0.2380   -4.0160 hc        1 MOL      0.070444
     69 N6          6.8070   -1.8230   -0.8090 n         1 MOL     -0.120220
     70 C23         7.7280   -1.2420    0.2090 c3        1 MOL     -0.262084
     71 C24         8.0510    0.2800    0.0970 c         1 MOL      0.479787
     72 O13         8.9600    0.7640    0.8310 o         1 MOL     -0.577724
     73 H30         5.8920   -2.0190   -0.4300 hn        1 MOL      0.186874
     74 H31         8.6170   -1.8730    0.2900 h1        1 MOL      0.141599
     75 H32         7.1700   -1.3000    1.1330 h1        1 MOL      0.141599
     76 N7          7.3300    1.0720   -0.7570 n         1 MOL      0.048736
     77 C25         7.4580    2.5090   -0.9370 c3        1 MOL     -0.194836
     78 C26         7.1740    3.2200    0.4270 c         1 MOL      0.560151
     79 O14         7.7250    4.2790    0.7720 o         1 MOL     -0.541369
     80 C27         8.6960    2.8930   -1.6880 c3        1 MOL      0.185496
     81 C28         8.8190    2.0220   -2.9710 c3        1 MOL     -0.173211
     82 C29         9.7250    2.6150   -4.0490 c         1 MOL      0.621010
     83 N8         10.7470    1.9030   -4.4420 n         1 MOL     -0.785476
     84 O15         9.4050    3.6470   -4.6100 o         1 MOL     -0.574784
     85 H33         6.6520    0.5380   -1.2830 hn        1 MOL      0.076425
     86 H34         6.7190    2.8950   -1.6490 h1        1 MOL      0.128297
     87 H35         9.5880    2.7290   -1.0900 hc        1 MOL     -0.029206
     88 H36         8.6550    3.9580   -1.9470 hc        1 MOL     -0.029206
     89 H37         7.8300    1.8500   -3.3910 hc        1 MOL      0.056847
     90 H38         9.1570    1.0480   -2.6230 hc        1 MOL      0.056847
     91 H39        10.8490    0.9790   -4.0570 hn        1 MOL      0.352543
     92 H40        11.2630    2.1960   -5.2520 hn        1 MOL      0.352543
     93 N9          6.3860    2.6340    1.3640 n         1 MOL     -0.457073
     94 C30         5.9400    3.2610    2.6980 c3        1 MOL     -0.165720
     95 C31         4.4500    3.1880    2.9720 c         1 MOL      0.671646
     96 O16         4.0100    3.7890    3.9320 o         1 MOL     -0.600637
     97 C32         6.7500    2.6680    3.9310 c3        1 MOL      0.286159
     98 C33         6.5820    1.1540    3.9190 c3        1 MOL     -0.367944
     99 C34         8.2830    2.9580    3.9290 c3        1 MOL     -0.367944
    100 H41         6.0050    1.7630    1.0220 hn        1 MOL      0.270455
    101 H42         6.1640    4.3250    2.6690 h1        1 MOL      0.126474
    102 H43         6.3520    3.0690    4.8610 hc        1 MOL     -0.017538
    103 H44         5.5010    1.0160    3.8160 hc        1 MOL      0.089770
    104 H45         7.0220    0.6720    3.0460 hc        1 MOL      0.089770
    105 H46         6.9780    0.7670    4.8550 hc        1 MOL      0.089770
    106 H47         8.4990    3.9370    3.4940 hc        1 MOL      0.089770
    107 H48         8.7160    2.9810    4.9320 hc        1 MOL      0.089770
    108 H49         8.8320    2.2840    3.2710 hc        1 MOL      0.089770
    109 N10         3.6240    2.5220    2.1340 n         1 MOL     -0.517851
    110 C35         2.1840    2.3590    2.2320 c3        1 MOL      0.305765
    111 C36         1.4260    2.6710    0.9220 c         1 MOL      0.380997
    112 O17         2.0170    2.5200   -0.1670 o         1 MOL     -0.476808
    113 C37         1.9710    0.8230    2.5300 c3        1 MOL     -0.349215
    114 C38         0.5560    0.2740    2.6110 c         1 MOL      0.624296
    115 N11         0.1180   -0.6700    1.8220 n         1 MOL     -0.568244
    116 O18        -0.2950    0.6380    3.2670 o         1 MOL     -0.578058
    117 H50         4.1060    2.0110    1.4040 hn        1 MOL      0.271889
    118 H51         1.7850    2.9090    3.0890 h1        1 MOL      0.031258
    119 H52         2.5170    0.5600    3.4400 hc        1 MOL      0.116147
    120 H53         2.4270    0.3450    1.6640 hc        1 MOL      0.116147
    121 H54         0.7160   -1.0780    1.1090 hn        1 MOL      0.278974
    122 H55        -0.8860   -0.7760    1.7840 hn        1 MOL      0.278974
    123 N12         0.1790    2.9490    1.0500 n         1 MOL     -0.443941
    124 C39        -0.7290    3.0170   -0.0340 c3        1 MOL      0.155714
    125 C40        -2.0290    3.7490    0.4420 c         1 MOL      0.404511
    126 O19        -2.6500    3.5600    1.5130 o         1 MOL     -0.564721
    127 C41        -1.0490    1.6060   -0.5560 c3        1 MOL     -0.100804
    128 C42        -2.0350    1.5380   -1.7240 ca        1 MOL     -0.060143
    129 C43        -3.2510    0.8000   -1.5650 ca        1 MOL     -0.085020
    130 C44        -1.7890    2.1430   -2.9770 ca        1 MOL     -0.085020
    131 C45        -4.1520    0.5630   -2.5760 ca        1 MOL     -0.294912
    132 C46        -2.6950    1.8850   -4.0450 ca        1 MOL     -0.294912
    133 C47        -3.8630    1.2150   -3.7960 ca        1 MOL      0.410323
    134 O20        -4.7960    1.1650   -4.8160 oh        1 MOL     -0.625819
    135 H56        -0.2170    2.8550    1.9820 hn        1 MOL      0.274892
    136 H57        -0.3050    3.5630   -0.8800 h1        1 MOL      0.066289
    137 H58        -1.5900    1.0740    0.2220 hc        1 MOL      0.113604
    138 H59        -0.1440    1.0280   -0.7070 hc        1 MOL      0.113604
    139 H60        -3.4620    0.3410   -0.6090 ha        1 MOL      0.111423
    140 H61        -0.9900    2.8530   -3.1190 ha        1 MOL      0.111423
    141 H62        -4.9510   -0.1600   -2.4930 ha        1 MOL      0.157584
    142 H63        -2.4550    2.3710   -4.9800 ha        1 MOL      0.157584
    143 H64        -5.6190    0.7910   -4.5120 ho        1 MOL      0.438269
    144 N13        -2.6350    4.5450   -0.4030 n         1 MOL     -0.335249
    145 C48        -3.8470    5.3270   -0.2180 c3        1 MOL      0.224843
    146 C49        -5.0010    4.8440   -1.0770 c         1 MOL      0.334143
    147 O21        -5.1110    5.3190   -2.2410 o         1 MOL     -0.563764
    148 C50        -3.7040    6.9190   -0.4540 c3        1 MOL      0.029004
    149 C51        -2.7190    7.4830    0.4890 c3        1 MOL     -0.135025
    150 C52        -2.6970    9.0010    0.4820 c         1 MOL      0.679665
    151 O22        -2.0500    9.5490   -0.4710 o         1 MOL     -0.685174
    152 O23        -3.2140    9.6300    1.4190 o         1 MOL     -0.685174
    153 H65        -2.2380    4.7450   -1.3070 hn        1 MOL      0.232686
    154 H66        -4.2340    5.1450    0.7850 h1        1 MOL      0.056952
    155 H67        -4.6810    7.3740   -0.2840 hc        1 MOL      0.017424
    156 H68        -3.4220    7.2450   -1.4550 hc        1 MOL      0.017424
    157 H69        -1.7320    7.1210    0.2330 hc        1 MOL      0.002317
    158 H70        -3.1330    7.1200    1.4300 hc        1 MOL      0.002317
    159 N14        -5.9660    4.0560   -0.6060 n         1 MOL     -0.376654
    160 C53        -6.1400    3.4400    0.6980 c3        1 MOL      0.095990
    161 C54        -6.5460    4.4570    1.7660 c         1 MOL      0.558006
    162 O24        -7.1850    5.4500    1.4820 o         1 MOL     -0.545639
    163 C55        -7.0950    2.2510    0.5740 c3        1 MOL     -0.322934
    164 C56        -6.6500    1.1160   -0.4360 c3        1 MOL     -0.033096
    165 C57        -7.6120   -0.0210   -0.8100 c         1 MOL      0.741904
    166 O25        -8.2620   -0.8330   -0.0630 o         1 MOL     -0.722920
    167 O26        -7.6980   -0.3050   -2.0320 o         1 MOL     -0.722920
    168 H71        -6.7060    3.9370   -1.2800 hn        1 MOL      0.305831
    169 H72        -5.1380    3.1390    1.0040 h1        1 MOL      0.055726
    170 H73        -8.1290    2.5630    0.4260 hc        1 MOL      0.062728
    171 H74        -7.0020    1.7780    1.5470 hc        1 MOL      0.062728
    172 H75        -5.7980    0.6000    0.0020 hc        1 MOL      0.046906
    173 H76        -6.3160    1.6130   -1.3510 hc        1 MOL      0.046906
    174 N15        -6.1180    4.1550    2.9660 n         1 MOL     -0.349970
    175 C58        -6.2060    5.0670    4.1570 c3        1 MOL     -0.251702
    176 H77        -7.2500    5.3140    4.3490 h1        1 MOL      0.113080
    177 H78        -5.7840    4.5690    5.0290 h1        1 MOL      0.113080
    178 H79        -5.6480    5.9820    3.9560 h1        1 MOL      0.113080
    179 H80        -5.5300    3.3410    3.0860 hn        1 MOL      0.311495
    180 Ca1        -8.1180   -2.9380   -1.6530 Ca        1 MOL      1.722046
    181 O27        -9.5390   -1.8520   -3.8700 oh        1 MOL     -0.855830
    182 H81        -9.6660   -2.6330   -4.4060 ho        1 MOL      0.400420
    183 H82        -9.9580   -1.1500   -4.3710 ho        1 MOL      0.400420
    184 O28        -7.3620   -3.9650   -3.9520 oh        1 MOL     -0.855830
    185 H83        -6.5080   -4.3500   -3.7510 ho        1 MOL      0.400420
    186 H84        -7.3860   -3.9270   -4.9080 ho        1 MOL      0.400420
    187 O29        -9.4260   -5.1670   -1.7870 oh        1 MOL     -0.855830
    188 H85        -9.6100   -5.9640   -2.2790 ho        1 MOL      0.400420
    189 H86        -9.9300   -5.2620   -0.9720 ho        1 MOL      0.400420
    190 O30       -10.8210   -2.4330   -1.0600 oh        1 MOL     -0.855830
    191 H87       -11.2690   -2.8200   -1.8180 ho        1 MOL      0.400420
    192 H88       -11.4320   -1.7820   -0.7380 ho        1 MOL      0.400420
@<TRIPOS>BOND
     1    1    2 1   
     2    1    4 1   
     3    1    5 1   
     4    1    6 1   
     5    2    3 2   
     6    2    7 1   
     7    7    8 1   
     8    7   15 1   
     9    8    9 1   
    10    8   11 1   
    11    8   16 1   
    12    9   10 2   
    13    9   19 1   
    14   11   12 1   
    15   11   17 1   
    16   11   18 1   
    17   12   13 1   
    18   12   14 1   
    19   19   20 1   
    20   19   27 1   
    21   20   21 1   
    22   20   23 1   
    23   20   28 1   
    24   21   22 2   
    25   21   38 1   
    26   23   24 1   
    27   23   25 1   
    28   23   29 1   
    29   24   26 1   
    30   24   30 1   
    31   24   31 1   
    32   25   32 1   
    33   25   33 1   
    34   25   34 1   
    35   26   35 1   
    36   26   36 1   
    37   26   37 1   
    38   38   39 1   
    39   38   46 1   
    40   39   40 1   
    41   39   42 1   
    42   39   47 1   
    43   40   41 2   
    44   40   50 1   
    45   42   43 1   
    46   42   48 1   
    47   42   49 1   
    48   43   44 1   
    49   43   45 1   
    50   50   51 1   
    51   50   54 1   
    52   51   52 1   
    53   51   55 1   
    54   51   56 1   
    55   52   53 2   
    56   52   57 1   
    57   57   58 1   
    58   57   65 1   
    59   58   59 1   
    60   58   61 1   
    61   58   66 1   
    62   59   60 2   
    63   59   69 1   
    64   61   62 1   
    65   61   67 1   
    66   61   68 1   
    67   62   63 1   
    68   62   64 1   
    69   69   70 1   
    70   69   73 1   
    71   70   71 1   
    72   70   74 1   
    73   70   75 1   
    74   71   72 2   
    75   71   76 1   
    76   76   77 1   
    77   76   85 1   
    78   77   78 1   
    79   77   80 1   
    80   77   86 1   
    81   78   79 2   
    82   78   93 1   
    83   80   81 1   
    84   80   87 1   
    85   80   88 1   
    86   81   82 1   
    87   81   89 1   
    88   81   90 1   
    89   82   83 1   
    90   82   84 2   
    91   83   91 1   
    92   83   92 1   
    93   93   94 1   
    94   93  100 1   
    95   94   95 1   
    96   94   97 1   
    97   94  101 1   
    98   95   96 2   
    99   95  109 1   
   100   97   98 1   
   101   97   99 1   
   102   97  102 1   
   103   98  103 1   
   104   98  104 1   
   105   98  105 1   
   106   99  106 1   
   107   99  107 1   
   108   99  108 1   
   109  109  110 1   
   110  109  117 1   
   111  110  111 1   
   112  110  113 1   
   113  110  118 1   
   114  111  112 2   
   115  111  123 1   
   116  113  114 1   
   117  113  119 1   
   118  113  120 1   
   119  114  115 1   
   120  114  116 2   
   121  115  121 1   
   122  115  122 1   
   123  123  124 1   
   124  123  135 1   
   125  124  125 1   
   126  124  127 1   
   127  124  136 1   
   128  125  126 2   
   129  125  144 1   
   130  127  128 1   
   131  127  137 1   
   132  127  138 1   
   133  128  129 ar  
   134  128  130 ar  
   135  129  131 ar  
   136  129  139 1   
   137  130  132 ar  
   138  130  140 1   
   139  131  133 ar  
   140  131  141 1   
   141  132  133 ar  
   142  132  142 1   
   143  133  134 1   
   144  134  143 1   
   145  144  145 1   
   146  144  153 1   
   147  145  146 1   
   148  145  148 1   
   149  145  154 1   
   150  146  147 2   
   151  146  159 1   
   152  148  149 1   
   153  148  155 1   
   154  148  156 1   
   155  149  150 1   
   156  149  157 1   
   157  149  158 1   
   158  150  151 1   
   159  150  152 1   
   160  159  160 1   
   161  159  168 1   
   162  160  161 1   
   163  160  163 1   
   164  160  169 1   
   165  161  162 2   
   166  161  174 1   
   167  163  164 1   
   168  163  170 1   
   169  163  171 1   
   170  164  165 1   
   171  164  172 1   
   172  164  173 1   
   173  165  166 1   
   174  165  167 1   
   175  174  175 1   
   176  174  179 1   
   177  175  176 1   
   178  175  177 1   
   179  175  178 1   
   180  181  182 1   
   181  181  183 1   
   182  184  185 1   
   183  184  186 1   
   184  187  188 1   
   185  187  189 1   
   186  190  191 1   
   187  190  192 1   
@<TRIPOS>SUBSTRUCTURE
     1 MOL         1 TEMP              0 ****  ****    0 ROOT
