@<TRIPOS>MOLECULE
MOL
  181   177     1     0     0
SMALL
resp


@<TRIPOS>ATOM
      1 C1          4.4840    5.4820   -4.6970 c3        1 MOL     -0.361556
      2 C2          4.4380    3.9250   -4.5920 c         1 MOL      0.646771
      3 O1          3.6690    3.2510   -5.2350 o         1 MOL     -0.564633
      4 H1          5.4820    5.8330   -4.4350 hc        1 MOL      0.094504
      5 H2          4.2490    5.7840   -5.7180 hc        1 MOL      0.094504
      6 H3          3.7550    5.9150   -4.0120 hc        1 MOL      0.094504
      7 N1          5.2640    3.2160   -3.7910 n         1 MOL     -0.455637
      8 C3          6.4410    3.7850   -3.1690 c3        1 MOL      0.002955
      9 C4          6.3150    3.6840   -1.6620 c         1 MOL      0.487243
     10 O2          6.0420    2.6060   -1.1410 o         1 MOL     -0.572858
     11 C5          7.7670    3.0190   -3.5470 c3        1 MOL     -0.008814
     12 C6          7.7840    1.4610   -3.2500 c         1 MOL      0.596908
     13 O3          8.8920    0.8670   -3.3720 o         1 MOL     -0.683302
     14 O4          6.8020    0.8170   -2.8930 o         1 MOL     -0.683302
     15 H4          5.1600    2.2150   -3.6750 hn        1 MOL      0.298166
     16 H5          6.6790    4.8190   -3.4010 h1        1 MOL      0.050372
     17 H6          8.5780    3.5720   -3.0750 hc        1 MOL      0.011156
     18 H7          8.0110    3.1700   -4.5930 hc        1 MOL      0.011156
     19 N2          6.7080    4.7300   -0.9730 n         1 MOL     -0.474417
     20 C7          6.6770    5.0750    0.4580 c3        1 MOL      0.137533
     21 C8          7.6140    4.2360    1.3670 c         1 MOL      0.474331
     22 O5          8.1900    4.6950    2.2810 o         1 MOL     -0.533776
     23 C9          5.2420    5.2360    0.9810 c3        1 MOL     -0.183803
     24 H8          6.9290    5.5140   -1.5770 hn        1 MOL      0.290333
     25 H9          7.1240    6.0760    0.4970 h1        1 MOL      0.039050
     26 H10         4.6740    5.9200    0.3470 hc        1 MOL      0.071117
     27 H11         4.8070    4.2380    1.0590 hc        1 MOL      0.071117
     28 H12         5.2500    5.7250    1.9480 hc        1 MOL      0.071117
     29 N3          7.6450    2.9320    1.0310 n         1 MOL     -0.285838
     30 C10         8.1110    1.8840    1.9250 c3        1 MOL      0.002290
     31 C11         8.3850    0.5270    1.2350 c         1 MOL      0.378457
     32 O6          7.9240    0.2110    0.1070 o         1 MOL     -0.408794
     33 C12         6.9940    1.6750    2.9910 c3        1 MOL      0.112055
     34 C13         5.5770    1.4250    2.5000 c         1 MOL      0.570169
     35 O7          5.3950    1.1500    1.2860 o         1 MOL     -0.656034
     36 O8          4.7030    1.3450    3.3580 o         1 MOL     -0.656034
     37 H13         6.9340    2.6490    0.3720 hn        1 MOL      0.146266
     38 H14         9.0380    2.2000    2.4090 h1        1 MOL      0.050830
     39 H15         7.0390    2.4800    3.7230 hc        1 MOL     -0.017530
     40 H16         7.3530    0.8620    3.6180 hc        1 MOL     -0.017530
     41 N4          9.1890   -0.3480    1.8650 n         1 MOL     -0.279580
     42 C14         9.3670   -1.7130    1.4790 c3        1 MOL     -0.371146
     43 C15         8.1430   -2.5890    1.7580 c         1 MOL      0.502838
     44 O9          8.0630   -3.6920    1.2320 o         1 MOL     -0.500660
     45 H17         9.6610   -0.0820    2.7140 hn        1 MOL      0.271562
     46 H18        10.2120   -2.0120    2.0860 h1        1 MOL      0.178660
     47 H19         9.5550   -1.7650    0.4080 h1        1 MOL      0.178660
     48 N5          7.2060   -2.0590    2.6390 n         1 MOL     -0.243330
     49 C16         5.8940   -2.7010    2.9570 c3        1 MOL     -0.018247
     50 C17         4.8640   -2.5980    1.7290 c         1 MOL      0.480250
     51 O10         5.1930   -1.9300    0.7820 o         1 MOL     -0.489415
     52 C18         5.4180   -1.9680    4.2100 c3        1 MOL     -0.331542
     53 C19         6.2490   -2.0640    5.4900 c         1 MOL      0.601301
     54 N6          6.7950   -0.9520    6.0020 n         1 MOL     -0.688031
     55 O11         6.5340   -3.1390    6.0230 o         1 MOL     -0.540731
     56 H20         7.3920   -1.1360    3.0010 hn        1 MOL      0.166919
     57 H21         6.0730   -3.7610    3.1680 h1        1 MOL      0.109820
     58 H22         4.4510   -2.4240    4.4260 hc        1 MOL      0.123154
     59 H23         5.0270   -0.9810    3.9800 hc        1 MOL      0.123154
     60 H24         6.6050   -0.0380    5.6150 hn        1 MOL      0.336211
     61 H25         7.3130   -1.1260    6.8460 hn        1 MOL      0.336211
     62 N7          3.7510   -3.3940    1.7000 n         1 MOL     -0.423724
     63 C20         2.8980   -3.6710    0.5470 c3        1 MOL      0.045199
     64 C21         2.4210   -5.1360    0.3000 c         1 MOL      0.630969
     65 O12         2.8130   -6.0610    1.0430 o         1 MOL     -0.609727
     66 H26         3.5640   -3.9860    2.4870 hn        1 MOL      0.282546
     67 H27         3.4630   -3.5640   -0.3740 h1        1 MOL      0.077266
     68 H28         1.9630   -3.1040    0.5630 h1        1 MOL      0.077266
     69 N8          1.6880   -5.4280   -0.6740 n         1 MOL     -0.561456
     70 C22         1.0890   -4.5200   -1.6200 c3        1 MOL      0.003562
     71 C23        -0.2220   -3.9290   -1.0760 c         1 MOL      0.652542
     72 O13        -1.0290   -4.7060   -0.6380 o         1 MOL     -0.558069
     73 C24         0.8550   -5.1780   -3.0270 c3        1 MOL      0.404824
     74 C25         0.7300   -4.1330   -4.0960 c3        1 MOL     -0.292920
     75 O14         2.0000   -5.9420   -3.4170 oh        1 MOL     -0.610453
     76 H29         1.4020   -6.3880   -0.8390 hn        1 MOL      0.333171
     77 H30         1.7410   -3.6700   -1.8390 h1        1 MOL      0.023475
     78 H31        -0.0390   -5.8030   -2.9820 h1        1 MOL      0.011947
     79 H32         1.6370   -6.8300   -3.4920 ho        1 MOL      0.373809
     80 H33         1.6760   -3.6600   -4.3610 hc        1 MOL      0.077089
     81 H34         0.4340   -4.6830   -4.9960 hc        1 MOL      0.077089
     82 H35         0.0990   -3.2680   -3.9070 hc        1 MOL      0.077089
     83 N9         -0.5800   -2.6670   -1.3840 n         1 MOL     -0.554560
     84 C26        -1.7890   -1.9330   -0.9780 c3        1 MOL      0.029089
     85 C27        -2.5720   -1.4920   -2.2450 c         1 MOL      0.669761
     86 O15        -2.0390   -1.1940   -3.2860 o         1 MOL     -0.597887
     87 C28        -1.5040   -0.7350   -0.0530 c3        1 MOL     -0.002971
     88 C29        -0.7950    0.3090   -0.9200 c3        1 MOL      0.407994
     89 C30        -0.8610   -1.2610    1.2580 c3        1 MOL     -0.374358
     90 C31        -0.5220    1.5640   -0.1310 c3        1 MOL     -0.097446
     91 H36        -0.0300   -2.2290   -2.1020 hn        1 MOL      0.232964
     92 H37        -2.4000   -2.6260   -0.3980 h1        1 MOL      0.115721
     93 H38        -2.4660   -0.3230    0.2340 hc        1 MOL      0.054287
     94 H39        -1.4120    0.6310   -1.7590 hc        1 MOL     -0.110258
     95 H40         0.1580   -0.0780   -1.2590 hc        1 MOL     -0.110258
     96 H41         0.2220   -1.3150    1.1360 hc        1 MOL      0.100837
     97 H42        -1.0850   -0.4850    1.9960 hc        1 MOL      0.100837
     98 H43        -1.3200   -2.1890    1.6120 hc        1 MOL      0.100837
     99 H44        -1.4780    2.0590    0.0610 hc        1 MOL     -0.013729
    100 H45        -0.0320    1.3310    0.8150 hc        1 MOL     -0.013729
    101 H46         0.1010    2.2170   -0.7390 hc        1 MOL     -0.013729
    102 N10        -3.9010   -1.3450   -2.1330 n         1 MOL     -0.621821
    103 C32        -4.7350   -1.8530   -1.0160 c3        1 MOL      0.351384
    104 C33        -6.0610   -1.1120   -0.9290 c         1 MOL      0.283194
    105 O16        -6.4140   -0.4100   -1.8880 o         1 MOL     -0.481490
    106 C34        -4.9520   -3.2960   -1.2910 c3        1 MOL     -0.194536
    107 C35        -5.7200   -3.5770   -2.6250 c         1 MOL      0.722660
    108 O17        -5.0950   -3.6750   -3.6840 o         1 MOL     -0.710055
    109 O18        -6.9930   -3.6940   -2.5090 o         1 MOL     -0.710055
    110 H47        -4.4410   -0.8960   -2.8610 hn        1 MOL      0.359600
    111 H48        -4.2590   -1.6170   -0.0670 h1        1 MOL     -0.043261
    112 H49        -5.4730   -3.7590   -0.4570 hc        1 MOL     -0.006265
    113 H50        -3.9330   -3.6730   -1.3880 hc        1 MOL     -0.006265
    114 N11        -6.8520   -1.4200    0.0960 n         1 MOL     -0.375876
    115 C36        -8.2270   -0.8330    0.2120 c3        1 MOL      0.301517
    116 C37        -8.6680   -0.6050    1.6760 c         1 MOL      0.174085
    117 O19        -8.4160   -1.5670    2.4470 o         1 MOL     -0.496135
    118 C38        -9.2940   -1.7960   -0.4580 c3        1 MOL     -0.423599
    119 C39       -10.7640   -1.3250   -0.4230 ca        1 MOL      0.331897
    120 C40       -11.5160   -1.7070    0.6560 ca        1 MOL     -0.298986
    121 C41       -11.2710   -0.4260   -1.3610 ca        1 MOL     -0.298986
    122 C42       -12.7690   -1.1140    0.8050 ca        1 MOL     -0.016808
    123 C43       -12.5260    0.1330   -1.1980 ca        1 MOL     -0.016808
    124 C44       -13.3120   -0.2020   -0.0970 ca        1 MOL     -0.233809
    125 H51        -6.4540   -2.0060    0.8260 hn        1 MOL      0.316581
    126 H52        -8.2040    0.1130   -0.3250 h1        1 MOL      0.047225
    127 H53        -9.2690   -2.7610    0.0440 hc        1 MOL      0.140797
    128 H54        -9.0280   -1.8970   -1.5060 hc        1 MOL      0.140797
    129 H55       -11.0950   -2.2420    1.4920 ha        1 MOL      0.163015
    130 H56       -10.6460   -0.0660   -2.1610 ha        1 MOL      0.163015
    131 H57       -13.3670   -1.3040    1.6860 ha        1 MOL      0.074688
    132 H58       -12.8970    0.8540   -1.9180 ha        1 MOL      0.074688
    133 H59       -14.1640    0.3920    0.1680 ha        1 MOL      0.118668
    134 N12        -9.3490    0.4760    2.0820 n         1 MOL      0.118996
    135 C45        -9.8620    1.5390    1.1640 c3        1 MOL     -0.000063
    136 C46        -8.8100    2.4510    0.5100 c         1 MOL      0.354731
    137 O20        -9.0610    2.9360   -0.5750 o         1 MOL     -0.512344
    138 C47       -10.7130    2.4340    2.0110 c3        1 MOL     -0.061503
    139 C48       -10.9910    1.7240    3.3000 c3        1 MOL      0.102124
    140 C49        -9.7630    0.7820    3.4570 c3        1 MOL     -0.304393
    141 H60       -10.4930    1.0500    0.4320 h1        1 MOL      0.070832
    142 H61       -10.1430    3.3250    2.2900 hc        1 MOL      0.034118
    143 H62       -11.6260    2.7340    1.4970 hc        1 MOL      0.034118
    144 H63       -11.1780    2.4250    4.1170 hc        1 MOL     -0.006795
    145 H64       -11.8980    1.1370    3.1790 hc        1 MOL     -0.006795
    146 H65        -8.9090    1.2220    3.9670 h1        1 MOL      0.115016
    147 H66       -10.0760   -0.1090    3.9890 h1        1 MOL      0.115016
    148 N13        -7.6440    2.6540    1.1210 n         1 MOL     -0.327157
    149 C50        -6.5330    3.4550    0.5410 c3        1 MOL      0.270636
    150 C51        -6.9170    4.9260    0.5510 c         1 MOL      0.461485
    151 O21        -6.8240    5.5710    1.5860 o         1 MOL     -0.582104
    152 C52        -5.2700    3.2380    1.4700 c3        1 MOL     -0.205318
    153 C53        -4.6220    1.7910    1.5450 c3        1 MOL     -0.033018
    154 C54        -3.8180    1.5170    2.8050 c         1 MOL      0.754475
    155 O22        -3.7590    0.3460    3.2130 o         1 MOL     -0.739457
    156 O23        -3.3010    2.4420    3.4410 o         1 MOL     -0.739457
    157 H67        -7.5510    2.3590    2.0820 hn        1 MOL      0.260550
    158 H68        -6.2880    3.0550   -0.4430 h1        1 MOL      0.033026
    159 H69        -5.6270    3.4830    2.4700 hc        1 MOL      0.053909
    160 H70        -4.4360    3.9000    1.2380 hc        1 MOL      0.053909
    161 H71        -4.0470    1.7320    0.6170 hc        1 MOL     -0.026855
    162 H72        -5.3320    0.9730    1.4770 hc        1 MOL     -0.026855
    163 N14        -7.2740    5.6110   -0.5160 n         1 MOL     -0.388515
    164 C55        -7.4010    5.2830   -1.9640 c3        1 MOL     -0.146028
    165 H73        -8.3720    5.6180   -2.3290 h1        1 MOL      0.084076
    166 H74        -6.6110    5.7870   -2.5220 h1        1 MOL      0.084076
    167 H75        -7.3140    4.2060   -2.1020 h1        1 MOL      0.084076
    168 H76        -7.0760    6.5980   -0.4110 hn        1 MOL      0.278794
    169 Ca1         5.4340    0.0350   -0.8790 Ca        1 MOL      1.662624
    170 O24         6.8250   -2.1070   -1.3910 oh        1 MOL     -0.798566
    171 H77         7.7590   -2.1270   -1.1730 ho        1 MOL      0.405659
    172 H78         6.7310   -2.7110   -2.1210 ho        1 MOL      0.405659
    173 O25         3.4140    1.3700   -2.1140 oh        1 MOL     -0.798566
    174 H79         3.1110    1.8850   -1.3640 ho        1 MOL      0.405659
    175 H80         2.8950    1.6910   -2.8400 ho        1 MOL      0.405659
    176 O26         2.5080   -0.3740    0.1420 oh        1 MOL     -0.798566
    177 H81         2.3960    0.5800    0.0670 ho        1 MOL      0.405659
    178 H82         2.0930   -0.5980    0.9830 ho        1 MOL      0.405659
    179 O27         4.1040   -1.6760   -2.4450 oh        1 MOL     -0.798566
    180 H83         3.1610   -1.5380   -2.5450 ho        1 MOL      0.405659
    181 H84         4.3290   -2.2910   -3.1340 ho        1 MOL      0.405659
@<TRIPOS>BOND
     1    1    2 1   
     2    1    4 1   
     3    1    5 1   
     4    1    6 1   
     5    2    3 2   
     6    2    7 1   
     7    7    8 1   
     8    7   15 1   
     9    8    9 1   
    10    8   11 1   
    11    8   16 1   
    12    9   10 2   
    13    9   19 1   
    14   11   12 1   
    15   11   17 1   
    16   11   18 1   
    17   12   13 1   
    18   12   14 1   
    19   19   20 1   
    20   19   24 1   
    21   20   21 1   
    22   20   23 1   
    23   20   25 1   
    24   21   22 2   
    25   21   29 1   
    26   23   26 1   
    27   23   27 1   
    28   23   28 1   
    29   29   30 1   
    30   29   37 1   
    31   30   31 1   
    32   30   33 1   
    33   30   38 1   
    34   31   32 2   
    35   31   41 1   
    36   33   34 1   
    37   33   39 1   
    38   33   40 1   
    39   34   35 1   
    40   34   36 1   
    41   41   42 1   
    42   41   45 1   
    43   42   43 1   
    44   42   46 1   
    45   42   47 1   
    46   43   44 2   
    47   43   48 1   
    48   48   49 1   
    49   48   56 1   
    50   49   50 1   
    51   49   52 1   
    52   49   57 1   
    53   50   51 2   
    54   50   62 1   
    55   52   53 1   
    56   52   58 1   
    57   52   59 1   
    58   53   54 1   
    59   53   55 2   
    60   54   60 1   
    61   54   61 1   
    62   62   63 1   
    63   62   66 1   
    64   63   64 1   
    65   63   67 1   
    66   63   68 1   
    67   64   65 2   
    68   64   69 1   
    69   69   70 1   
    70   69   76 1   
    71   70   71 1   
    72   70   73 1   
    73   70   77 1   
    74   71   72 2   
    75   71   83 1   
    76   73   74 1   
    77   73   75 1   
    78   73   78 1   
    79   74   80 1   
    80   74   81 1   
    81   74   82 1   
    82   75   79 1   
    83   83   84 1   
    84   83   91 1   
    85   84   85 1   
    86   84   87 1   
    87   84   92 1   
    88   85   86 2   
    89   85  102 1   
    90   87   88 1   
    91   87   89 1   
    92   87   93 1   
    93   88   90 1   
    94   88   94 1   
    95   88   95 1   
    96   89   96 1   
    97   89   97 1   
    98   89   98 1   
    99   90   99 1   
   100   90  100 1   
   101   90  101 1   
   102  102  103 1   
   103  102  110 1   
   104  103  104 1   
   105  103  106 1   
   106  103  111 1   
   107  104  105 2   
   108  104  114 1   
   109  106  107 1   
   110  106  112 1   
   111  106  113 1   
   112  107  108 1   
   113  107  109 1   
   114  114  115 1   
   115  114  125 1   
   116  115  116 1   
   117  115  118 1   
   118  115  126 1   
   119  116  117 2   
   120  116  134 1   
   121  118  119 1   
   122  118  127 1   
   123  118  128 1   
   124  119  120 ar  
   125  119  121 ar  
   126  120  122 ar  
   127  120  129 1   
   128  121  123 ar  
   129  121  130 1   
   130  122  124 ar  
   131  122  131 1   
   132  123  124 ar  
   133  123  132 1   
   134  124  133 1   
   135  134  135 1   
   136  134  140 1   
   137  135  136 1   
   138  135  138 1   
   139  135  141 1   
   140  136  137 2   
   141  136  148 1   
   142  138  139 1   
   143  138  142 1   
   144  138  143 1   
   145  139  140 1   
   146  139  144 1   
   147  139  145 1   
   148  140  146 1   
   149  140  147 1   
   150  148  149 1   
   151  148  157 1   
   152  149  150 1   
   153  149  152 1   
   154  149  158 1   
   155  150  151 2   
   156  150  163 1   
   157  152  153 1   
   158  152  159 1   
   159  152  160 1   
   160  153  154 1   
   161  153  161 1   
   162  153  162 1   
   163  154  155 1   
   164  154  156 1   
   165  163  164 1   
   166  163  168 1   
   167  164  165 1   
   168  164  166 1   
   169  164  167 1   
   170  170  171 1   
   171  170  172 1   
   172  173  174 1   
   173  173  175 1   
   174  176  177 1   
   175  176  178 1   
   176  179  180 1   
   177  179  181 1   
@<TRIPOS>SUBSTRUCTURE
     1 MOL         1 TEMP              0 ****  ****    0 ROOT
