@<TRIPOS>MOLECULE
MOL
  182   178     1     0     0
SMALL
resp


@<TRIPOS>ATOM
      1 C1          0.3060   -4.0430    5.9150 c3        1 MOL     -0.356995
      2 C2          0.4820   -3.7510    4.3960 c         1 MOL      0.715568
      3 O1         -0.4980   -3.8470    3.6910 o         1 MOL     -0.486264
      4 H1          0.8250   -3.2790    6.4940 hc        1 MOL      0.102480
      5 H2         -0.7550   -4.0310    6.1670 hc        1 MOL      0.102480
      6 H3          0.7250   -5.0220    6.1480 hc        1 MOL      0.102480
      7 N1          1.7730   -3.4600    3.9910 n         1 MOL     -0.636883
      8 C3          2.0780   -3.0730    2.6330 c3        1 MOL      0.164696
      9 C4          2.0940   -4.2720    1.6740 c         1 MOL      0.366754
     10 O2          2.0360   -5.4910    2.1020 o         1 MOL     -0.505650
     11 C5          3.3940   -2.2540    2.6810 c3        1 MOL     -0.037586
     12 C6          3.6640   -1.3180    1.4690 c         1 MOL      0.489776
     13 O3          4.0560   -0.1150    1.6560 o         1 MOL     -0.659506
     14 O4          3.4310   -1.7510    0.3200 o         1 MOL     -0.659506
     15 H4          2.3920   -3.1610    4.7300 hn        1 MOL      0.333131
     16 H5          1.4090   -2.2930    2.2560 h1        1 MOL     -0.006506
     17 H6          4.2760   -2.8800    2.8510 hc        1 MOL      0.038140
     18 H7          3.3160   -1.5910    3.5490 hc        1 MOL      0.038140
     19 N2          2.0680   -4.0520    0.3240 n         1 MOL     -0.123079
     20 C7          2.1570   -5.0560   -0.7190 c3        1 MOL      0.020150
     21 C8          3.3820   -4.9810   -1.6720 c         1 MOL      0.562916
     22 O5          3.8610   -5.9730   -2.1510 o         1 MOL     -0.536103
     23 C9          0.8180   -5.1240   -1.4990 c3        1 MOL     -0.002222
     24 C10         0.4160   -6.4840   -1.9470 c3        1 MOL      0.233444
     25 C11        -0.6680   -6.4080   -3.0730 c3        1 MOL     -0.061369
     26 C12        -1.5000   -7.6740   -3.3520 c3        1 MOL      0.113275
     27 N3         -2.6860   -7.4520   -4.2320 n4        1 MOL     -0.349782
     28 H8          2.1290   -3.0820    0.0430 hn        1 MOL      0.148706
     29 H9          2.3040   -6.0210   -0.2330 h1        1 MOL      0.041415
     30 H10         0.7630   -4.3830   -2.3030 hc        1 MOL     -0.042381
     31 H11         0.0800   -4.8020   -0.7700 hc        1 MOL     -0.042381
     32 H12        -0.0070   -7.0750   -1.1360 hc        1 MOL     -0.037433
     33 H13         1.2680   -7.0610   -2.3350 hc        1 MOL     -0.037433
     34 H14        -0.1610   -5.9370   -3.9150 hc        1 MOL      0.019052
     35 H15        -1.4400   -5.7360   -2.7020 hc        1 MOL      0.019052
     36 H16        -1.8320   -8.1760   -2.4410 hx        1 MOL      0.053129
     37 H17        -0.7830   -8.3520   -3.7970 hx        1 MOL      0.053129
     38 H18        -3.2840   -8.2630   -4.2080 hn        1 MOL      0.270358
     39 H19        -3.2190   -6.7330   -3.7540 hn        1 MOL      0.270358
     40 H20        -2.5360   -7.2210   -5.2090 hn        1 MOL      0.270358
     41 N4          3.9890   -3.7540   -1.7510 n         1 MOL     -0.455441
     42 C13         5.2410   -3.4770   -2.5460 c3        1 MOL      0.319034
     43 C14         6.4880   -3.1080   -1.6480 c         1 MOL      0.190991
     44 O6          7.6440   -3.2050   -2.0790 o         1 MOL     -0.470385
     45 C15         5.1130   -2.3220   -3.5230 c3        1 MOL     -0.434728
     46 C16         4.4510   -1.1230   -2.8810 c         1 MOL      0.968356
     47 O7          4.9510   -0.4840   -1.9830 o         1 MOL     -0.796981
     48 O8          3.3630   -0.7820   -3.2810 o         1 MOL     -0.796981
     49 H21         3.7400   -3.1070   -1.0150 hn        1 MOL      0.146890
     50 H22         5.5000   -4.3530   -3.1320 h1        1 MOL      0.062870
     51 H23         4.4550   -2.6600   -4.3270 hc        1 MOL      0.103572
     52 H24         6.0740   -1.9900   -3.8850 hc        1 MOL      0.103572
     53 N5          6.1930   -2.6420   -0.4090 n         1 MOL     -0.003908
     54 C17         7.1050   -2.3250    0.7040 c3        1 MOL     -0.183594
     55 C18         7.4130   -0.8850    1.0490 c         1 MOL      0.664047
     56 O9          8.1000   -0.5880    2.0120 o         1 MOL     -0.602184
     57 H25         5.2100   -2.7290   -0.1850 hn        1 MOL      0.101261
     58 H26         8.0180   -2.8470    0.4240 h1        1 MOL      0.093710
     59 H27         6.8200   -2.7890    1.6430 h1        1 MOL      0.093710
     60 N6          6.9370    0.0610    0.2390 n         1 MOL     -0.313775
     61 C19         7.4030    1.4630    0.2300 c3        1 MOL      0.037405
     62 C20         6.1050    2.3980    0.0920 c         1 MOL      0.520353
     63 O10         5.0310    2.0410   -0.3880 o         1 MOL     -0.444576
     64 C21         8.3630    1.6550   -0.9960 c3        1 MOL     -0.271050
     65 C22         9.6690    0.8740   -0.9070 c         1 MOL      0.559097
     66 N7         10.5810    1.2250   -0.0420 n         1 MOL     -0.677303
     67 O11         9.9020   -0.1330   -1.5380 o         1 MOL     -0.498447
     68 H28         6.3640   -0.2070   -0.5480 hn        1 MOL      0.275083
     69 H29         7.9510    1.7460    1.1370 h1        1 MOL      0.057681
     70 H30         8.5540    2.7260   -1.0090 hc        1 MOL      0.077624
     71 H31         7.8320    1.2450   -1.8470 hc        1 MOL      0.077624
     72 H32        10.5190    2.0380    0.5520 hn        1 MOL      0.334197
     73 H33        11.4470    0.7240   -0.1490 hn        1 MOL      0.334197
     74 N8          6.4260    3.6230    0.4750 n         1 MOL     -0.488853
     75 C23         5.5160    4.6730    0.1220 c3        1 MOL     -0.026978
     76 C24         4.2250    4.7310    0.9180 c         1 MOL      0.609351
     77 O12         4.1550    4.5560    2.1050 o         1 MOL     -0.493511
     78 H34         7.2950    3.9380    0.8990 hn        1 MOL      0.354972
     79 H35         5.2980    4.6690   -0.9420 h1        1 MOL      0.056735
     80 H36         5.8740    5.6950    0.2290 h1        1 MOL      0.056735
     81 N9          3.1490    4.9170    0.1150 n         1 MOL     -0.545527
     82 C25         1.7450    4.6900    0.5510 c3        1 MOL     -0.018254
     83 C26         1.4690    3.2770    1.1500 c         1 MOL      0.479568
     84 O13         2.2360    2.3430    0.8640 o         1 MOL     -0.458763
     85 C27         0.8160    4.8680   -0.6620 c3        1 MOL     -0.328554
     86 C28         0.5180    6.2450   -1.1510 ca        1 MOL      0.273915
     87 C29         0.6960    7.3810   -0.3580 ca        1 MOL     -0.264209
     88 C30         0.1820    6.4830   -2.5300 ca        1 MOL     -0.264209
     89 C31         0.3660    8.6830   -0.9220 ca        1 MOL     -0.231469
     90 C32         0.0200    7.8040   -3.0830 ca        1 MOL     -0.231469
     91 C33         0.0180    8.9090   -2.2380 ca        1 MOL      0.319524
     92 O14        -0.3900   10.1430   -2.6350 oh        1 MOL     -0.441990
     93 H37         3.3430    4.9860   -0.8800 hn        1 MOL      0.283908
     94 H38         1.4680    5.3980    1.3350 h1        1 MOL      0.113596
     95 H39        -0.1730    4.4830   -0.4120 hc        1 MOL      0.107051
     96 H40         1.2710    4.3960   -1.5280 hc        1 MOL      0.107051
     97 H41         1.1280    7.2760    0.6240 ha        1 MOL      0.156638
     98 H42         0.2120    5.6540   -3.2180 ha        1 MOL      0.156638
     99 H43         0.4780    9.5110   -0.2430 ha        1 MOL      0.155161
    100 H44        -0.2450    7.9420   -4.1240 ha        1 MOL      0.155161
    101 H45        -0.3990   10.7420   -1.8780 ho        1 MOL      0.342200
    102 N10         0.5270    3.1040    2.0450 n         1 MOL     -0.356291
    103 C34         0.0740    1.7920    2.5990 c3        1 MOL     -0.133802
    104 C35        -0.2360    0.6860    1.5960 c         1 MOL      0.222640
    105 O15         0.5650    0.2220    0.7710 o         1 MOL     -0.317679
    106 C36         1.1130    1.3180    3.6490 c3        1 MOL      0.229892
    107 C37         0.8220   -0.0850    4.2320 c3        1 MOL     -0.335871
    108 C38         1.4020    2.4090    4.6970 c3        1 MOL     -0.097772
    109 C39        -0.3690   -0.0150    5.2920 c3        1 MOL     -0.198483
    110 H46         0.0620    3.8910    2.4710 hn        1 MOL      0.288263
    111 H47        -0.8440    1.9020    3.1640 h1        1 MOL      0.107968
    112 H48         2.0630    1.1640    3.1430 hc        1 MOL      0.030224
    113 H49         1.6890   -0.3870    4.8040 hc        1 MOL      0.129333
    114 H50         0.6500   -0.8570    3.4720 hc        1 MOL      0.129333
    115 H51         1.8780    3.3290    4.3680 hc        1 MOL      0.032427
    116 H52         0.4250    2.6980    5.0850 hc        1 MOL      0.032427
    117 H53         1.9680    2.0810    5.5760 hc        1 MOL      0.032427
    118 H54        -0.1050    0.6820    6.0880 hc        1 MOL      0.055749
    119 H55        -1.2460    0.4230    4.8370 hc        1 MOL      0.055749
    120 H56        -0.5370   -0.9690    5.7970 hc        1 MOL      0.055749
    121 N11        -1.4820    0.2120    1.6420 n         1 MOL     -0.054370
    122 C40        -1.9180   -0.8380    0.7540 c3        1 MOL     -0.325773
    123 C41        -3.4010   -0.6490    0.3340 c         1 MOL      0.586981
    124 O16        -3.9660   -1.6090   -0.2210 o         1 MOL     -0.566163
    125 C42        -1.5870   -2.2560    1.1910 c3        1 MOL      0.234739
    126 O17        -2.2820   -2.4530    2.4640 oh        1 MOL     -0.608711
    127 H57        -2.1260    0.4630    2.3830 hn        1 MOL      0.236186
    128 H58        -1.3400   -0.6860   -0.1610 h1        1 MOL      0.099393
    129 H59        -0.5190   -2.3890    1.3480 h1        1 MOL      0.045730
    130 H60        -1.9320   -3.0520    0.5230 h1        1 MOL      0.045730
    131 H61        -1.8020   -3.0780    3.0040 ho        1 MOL      0.359239
    132 N12        -4.0370    0.4320    0.6050 n         1 MOL     -0.354719
    133 C43        -5.4800    0.5880    0.3380 c3        1 MOL      0.184208
    134 C44        -5.7340    1.1210   -1.0990 c         1 MOL      0.482010
    135 O18        -4.9480    1.8130   -1.7340 o         1 MOL     -0.588564
    136 C45        -6.0740    1.5680    1.3470 c3        1 MOL     -0.148678
    137 H62        -3.4820    1.2060    0.9490 hn        1 MOL      0.178299
    138 H63        -5.9600   -0.3910    0.4230 h1        1 MOL      0.086521
    139 H64        -7.1210    1.7080    1.0690 hc        1 MOL      0.047561
    140 H65        -5.9530    1.1220    2.3330 hc        1 MOL      0.047561
    141 H66        -5.6730    2.5730    1.2940 hc        1 MOL      0.047561
    142 N13        -6.7540    0.7530   -1.7460 n         1 MOL     -0.439126
    143 C46        -7.9240   -0.0180   -1.3020 c3        1 MOL      0.332176
    144 C47        -9.1810    0.5120   -2.0190 c         1 MOL      0.336989
    145 O19        -9.0360    1.0290   -3.1250 o         1 MOL     -0.520481
    146 C48        -7.7540   -1.4940   -1.5820 c3        1 MOL     -0.382881
    147 H67        -6.8950    1.0790   -2.6830 hn        1 MOL      0.302014
    148 H68        -8.0340    0.0210   -0.2170 h1        1 MOL     -0.026758
    149 H69        -6.7490   -1.8320   -1.3330 hc        1 MOL      0.104883
    150 H70        -8.6100   -2.0390   -1.1810 hc        1 MOL      0.104883
    151 H71        -7.6980   -1.5540   -2.6720 hc        1 MOL      0.104883
    152 N14       -10.3540    0.4120   -1.4190 n         1 MOL     -0.287703
    153 C49       -10.5890    0.2330    0.0320 c3        1 MOL     -0.381893
    154 C50       -10.0860    1.3700    0.9870 c         1 MOL      0.566281
    155 O20        -9.7820    1.0980    2.1190 o         1 MOL     -0.507975
    156 C51       -12.0890   -0.1040    0.1510 c3        1 MOL      0.144287
    157 C52       -12.5440   -1.4410   -0.4200 c3        1 MOL     -0.148275
    158 C53       -13.9080   -1.8940   -0.0130 c         1 MOL      0.716692
    159 O21       -14.7850   -1.0370    0.0350 o         1 MOL     -0.662338
    160 O22       -14.1600   -3.0840    0.2760 o         1 MOL     -0.662338
    161 H72       -11.1010    0.8620   -1.9230 hn        1 MOL      0.306205
    162 H73       -10.1130   -0.6570    0.4350 h1        1 MOL      0.188236
    163 H74       -12.7110    0.6890   -0.2610 hc        1 MOL      0.007332
    164 H75       -12.3570   -0.0910    1.2000 hc        1 MOL      0.007332
    165 H76       -11.8010   -2.2120   -0.1990 hc        1 MOL      0.007047
    166 H77       -12.5850   -1.4170   -1.5130 hc        1 MOL      0.007047
    167 N15        -9.9650    2.5720    0.4220 n         1 MOL     -0.315959
    168 C54        -9.3690    3.7330    1.0890 c3        1 MOL     -0.206328
    169 H78        -8.5350    3.4070    1.7100 h1        1 MOL      0.103530
    170 H79        -9.0090    4.4380    0.3390 h1        1 MOL      0.103530
    171 H80       -10.1190    4.2190    1.7140 h1        1 MOL      0.103530
    172 H81       -10.2450    2.6930   -0.5320 hn        1 MOL      0.271663
    173 Ca1         2.8510    0.5200   -0.8500 Ca        1 MOL      1.733018
    174 O23         0.5670    1.2310   -2.0480 oh        1 MOL     -0.833260
    175 H82        -0.3480    0.9340   -2.1000 ho        1 MOL      0.406502
    176 H83         0.7200    1.6990   -2.8730 ho        1 MOL      0.406502
    177 O24         3.2280    2.4500   -2.6350 oh        1 MOL     -0.833260
    178 H84         4.0870    2.4730   -3.0600 ho        1 MOL      0.406502
    179 H85         3.0160    3.3730   -2.4980 ho        1 MOL      0.406502
    180 O25         1.0110   -1.5900   -2.0320 oh        1 MOL     -0.833260
    181 H86         1.2380   -1.4130   -2.9460 ho        1 MOL      0.406502
    182 H87         0.0770   -1.8120   -2.0520 ho        1 MOL      0.406502
@<TRIPOS>BOND
     1    1    2 1   
     2    1    4 1   
     3    1    5 1   
     4    1    6 1   
     5    2    3 2   
     6    2    7 1   
     7    7    8 1   
     8    7   15 1   
     9    8    9 1   
    10    8   11 1   
    11    8   16 1   
    12    9   10 2   
    13    9   19 1   
    14   11   12 1   
    15   11   17 1   
    16   11   18 1   
    17   12   13 1   
    18   12   14 1   
    19   19   20 1   
    20   19   28 1   
    21   20   21 1   
    22   20   23 1   
    23   20   29 1   
    24   21   22 2   
    25   21   41 1   
    26   23   24 1   
    27   23   30 1   
    28   23   31 1   
    29   24   25 1   
    30   24   32 1   
    31   24   33 1   
    32   25   26 1   
    33   25   34 1   
    34   25   35 1   
    35   26   27 1   
    36   26   36 1   
    37   26   37 1   
    38   27   38 1   
    39   27   39 1   
    40   27   40 1   
    41   41   42 1   
    42   41   49 1   
    43   42   43 1   
    44   42   45 1   
    45   42   50 1   
    46   43   44 2   
    47   43   53 1   
    48   45   46 1   
    49   45   51 1   
    50   45   52 1   
    51   46   47 1   
    52   46   48 1   
    53   53   54 1   
    54   53   57 1   
    55   54   55 1   
    56   54   58 1   
    57   54   59 1   
    58   55   56 2   
    59   55   60 1   
    60   60   61 1   
    61   60   68 1   
    62   61   62 1   
    63   61   64 1   
    64   61   69 1   
    65   62   63 2   
    66   62   74 1   
    67   64   65 1   
    68   64   70 1   
    69   64   71 1   
    70   65   66 1   
    71   65   67 2   
    72   66   72 1   
    73   66   73 1   
    74   74   75 1   
    75   74   78 1   
    76   75   76 1   
    77   75   79 1   
    78   75   80 1   
    79   76   77 2   
    80   76   81 1   
    81   81   82 1   
    82   81   93 1   
    83   82   83 1   
    84   82   85 1   
    85   82   94 1   
    86   83   84 2   
    87   83  102 1   
    88   85   86 1   
    89   85   95 1   
    90   85   96 1   
    91   86   87 ar  
    92   86   88 ar  
    93   87   89 ar  
    94   87   97 1   
    95   88   90 ar  
    96   88   98 1   
    97   89   91 ar  
    98   89   99 1   
    99   90   91 ar  
   100   90  100 1   
   101   91   92 1   
   102   92  101 1   
   103  102  103 1   
   104  102  110 1   
   105  103  104 1   
   106  103  106 1   
   107  103  111 1   
   108  104  105 2   
   109  104  121 1   
   110  106  107 1   
   111  106  108 1   
   112  106  112 1   
   113  107  109 1   
   114  107  113 1   
   115  107  114 1   
   116  108  115 1   
   117  108  116 1   
   118  108  117 1   
   119  109  118 1   
   120  109  119 1   
   121  109  120 1   
   122  121  122 1   
   123  121  127 1   
   124  122  123 1   
   125  122  125 1   
   126  122  128 1   
   127  123  124 2   
   128  123  132 1   
   129  125  126 1   
   130  125  129 1   
   131  125  130 1   
   132  126  131 1   
   133  132  133 1   
   134  132  137 1   
   135  133  134 1   
   136  133  136 1   
   137  133  138 1   
   138  134  135 2   
   139  134  142 1   
   140  136  139 1   
   141  136  140 1   
   142  136  141 1   
   143  142  143 1   
   144  142  147 1   
   145  143  144 1   
   146  143  146 1   
   147  143  148 1   
   148  144  145 2   
   149  144  152 1   
   150  146  149 1   
   151  146  150 1   
   152  146  151 1   
   153  152  153 1   
   154  152  161 1   
   155  153  154 1   
   156  153  156 1   
   157  153  162 1   
   158  154  155 2   
   159  154  167 1   
   160  156  157 1   
   161  156  163 1   
   162  156  164 1   
   163  157  158 1   
   164  157  165 1   
   165  157  166 1   
   166  158  159 1   
   167  158  160 1   
   168  167  168 1   
   169  167  172 1   
   170  168  169 1   
   171  168  170 1   
   172  168  171 1   
   173  174  175 1   
   174  174  176 1   
   175  177  178 1   
   176  177  179 1   
   177  180  181 1   
   178  180  182 1   
@<TRIPOS>SUBSTRUCTURE
     1 MOL         1 TEMP              0 ****  ****    0 ROOT
