@<TRIPOS>MOLECULE
MOL
  192   187     1     0     0
SMALL
resp


@<TRIPOS>ATOM
      1 C1         -4.1310   -1.9150    2.9760 c3        1 MOL     -0.278646
      2 C2         -3.3120   -2.4790    1.7780 c         1 MOL      0.582253
      3 O1         -2.3630   -1.9210    1.3610 o         1 MOL     -0.400185
      4 H1         -4.1990   -2.6730    3.7570 hc        1 MOL      0.064146
      5 H2         -3.6340   -1.0300    3.3710 hc        1 MOL      0.064146
      6 H3         -5.1330   -1.6510    2.6390 hc        1 MOL      0.064146
      7 N1         -3.6410   -3.6910    1.2940 n         1 MOL     -0.444140
      8 C3         -2.8770   -4.4040    0.2130 c3        1 MOL     -0.438481
      9 C4         -1.4130   -4.7410    0.4760 c         1 MOL      0.867295
     10 O2         -0.6620   -5.0240   -0.4470 o         1 MOL     -0.551138
     11 C5         -3.2020   -3.8540   -1.1820 c3        1 MOL     -0.179226
     12 C6         -4.6320   -3.5200   -1.3870 c         1 MOL      0.749992
     13 O3         -5.1320   -2.3770   -1.2520 o         1 MOL     -0.733265
     14 O4         -5.4070   -4.4220   -1.8270 o         1 MOL     -0.733265
     15 H4         -4.4890   -4.0870    1.6750 hn        1 MOL      0.260946
     16 H5         -3.2830   -5.4190    0.1900 h1        1 MOL      0.177129
     17 H6         -2.8070   -4.5670   -1.8990 hc        1 MOL      0.097518
     18 H7         -2.4730   -3.1080   -1.5150 hc        1 MOL      0.097518
     19 N2         -1.0060   -4.6290    1.7010 n         1 MOL     -0.612167
     20 C7          0.4000   -4.8530    2.1090 c3        1 MOL     -0.093757
     21 C8          1.0690   -6.1110    1.5550 c         1 MOL      0.460581
     22 O5          0.5530   -7.1950    1.7220 o         1 MOL     -0.552144
     23 C9          0.5520   -4.6200    3.6470 c3        1 MOL      0.076024
     24 C10        -0.2640   -5.6370    4.4460 c3        1 MOL      0.281814
     25 C11         0.3450   -3.1380    4.0370 c3        1 MOL     -0.410517
     26 C12         0.2140   -5.7750    5.8580 c3        1 MOL     -0.116899
     27 H8         -1.7070   -4.4690    2.4130 hn        1 MOL      0.317281
     28 H9          0.9040   -3.9630    1.7240 h1        1 MOL      0.200056
     29 H10         1.5920   -4.8430    3.8660 hc        1 MOL      0.048399
     30 H11        -0.3090   -6.6340    4.0040 hc        1 MOL     -0.059964
     31 H12        -1.2810   -5.2640    4.5370 hc        1 MOL     -0.059964
     32 H13         0.4230   -3.0470    5.1210 hc        1 MOL      0.114121
     33 H14         1.1370   -2.5210    3.6000 hc        1 MOL      0.114121
     34 H15        -0.5810   -2.6990    3.6710 hc        1 MOL      0.114121
     35 H16         0.1220   -4.8670    6.4340 hc        1 MOL      0.001318
     36 H17        -0.4360   -6.5040    6.3540 hc        1 MOL      0.001318
     37 H18         1.2600   -6.0850    5.8740 hc        1 MOL      0.001318
     38 N3          2.3070   -6.0690    0.9960 n         1 MOL     -0.271090
     39 C13         3.1150   -4.9620    0.4590 c3        1 MOL     -0.411107
     40 C14         4.1350   -5.3160   -0.5600 c         1 MOL      0.649563
     41 O6          5.0830   -5.9850   -0.2570 o         1 MOL     -0.501722
     42 C15         3.8910   -4.2850    1.5980 c3        1 MOL     -0.079649
     43 C16         4.7330   -3.1780    0.9390 c         1 MOL      0.636018
     44 O7          5.9470   -3.3270    0.8550 o         1 MOL     -0.664175
     45 O8          4.1280   -2.1820    0.5380 o         1 MOL     -0.664175
     46 H19         2.7950   -6.9270    0.7990 hn        1 MOL      0.265720
     47 H20         2.4080   -4.2370    0.0550 h1        1 MOL      0.150849
     48 H21         4.5050   -4.9600    2.1940 hc        1 MOL      0.024858
     49 H22         3.0990   -3.9210    2.2650 hc        1 MOL      0.024858
     50 N4          3.9770   -4.8610   -1.8190 n         1 MOL     -0.357235
     51 C17         4.8670   -5.0470   -2.9480 c3        1 MOL     -0.237618
     52 C18         5.8700   -3.8830   -3.0600 c         1 MOL      0.715462
     53 O9          7.0180   -4.0920   -3.4690 o         1 MOL     -0.618734
     54 H23         3.1680   -4.2760   -1.9580 hn        1 MOL      0.287576
     55 H24         4.2730   -5.1190   -3.8630 h1        1 MOL      0.100041
     56 H25         5.3610   -6.0130   -2.8650 h1        1 MOL      0.100041
     57 N5          5.4980   -2.6450   -2.7150 n         1 MOL     -0.499524
     58 C19         6.3940   -1.5690   -3.0470 c3        1 MOL      0.085531
     59 C20         7.2690   -1.1080   -1.9310 c         1 MOL      0.471758
     60 O10         8.4240   -0.7920   -2.0680 o         1 MOL     -0.623325
     61 C21         5.6890   -0.3510   -3.6200 c3        1 MOL     -0.285702
     62 C22         4.4970    0.1670   -2.7980 c         1 MOL      0.744363
     63 O11         3.3540   -0.4650   -2.8300 o         1 MOL     -0.704272
     64 O12         4.6500    1.0890   -1.9940 o         1 MOL     -0.704272
     65 H26         4.7340   -2.5280   -2.0710 hn        1 MOL      0.278508
     66 H27         7.0400   -1.8460   -3.8850 h1        1 MOL      0.084648
     67 H28         5.1320   -0.6160   -4.5140 hc        1 MOL      0.037207
     68 H29         6.3770    0.4730   -3.8090 hc        1 MOL      0.037207
     69 N6          6.7720   -1.0680   -0.7080 n         1 MOL      0.063150
     70 C23         7.6730   -0.7050    0.4240 c3        1 MOL     -0.404653
     71 C24         7.8480    0.7820    0.4700 c         1 MOL      0.620294
     72 O13         8.6600    1.2040    1.2630 o         1 MOL     -0.622523
     73 H30         5.8300   -1.4170   -0.5710 hn        1 MOL      0.182685
     74 H31         8.6640   -1.1540    0.3260 h1        1 MOL      0.149522
     75 H32         7.1580   -0.9200    1.3630 h1        1 MOL      0.149522
     76 N7          7.0840    1.4970   -0.3250 n         1 MOL      0.008967
     77 C25         7.0950    2.9450   -0.6340 c3        1 MOL     -0.018547
     78 C26         6.6820    3.8050    0.6180 c         1 MOL      0.439565
     79 O14         6.9270    4.9900    0.7050 o         1 MOL     -0.524361
     80 C27         8.4080    3.3200   -1.2550 c3        1 MOL      0.116732
     81 C28         8.5840    2.5980   -2.5810 c3        1 MOL     -0.324718
     82 C29         9.6810    3.2300   -3.5000 c         1 MOL      0.648069
     83 N8         10.6060    2.4040   -4.0760 n         1 MOL     -0.798633
     84 O15         9.7230    4.4120   -3.8430 o         1 MOL     -0.558997
     85 H33         6.4430    1.0730   -0.9900 hn        1 MOL     -0.030511
     86 H34         6.3920    3.0720   -1.4610 h1        1 MOL      0.106652
     87 H35         9.1330    3.1930   -0.4610 hc        1 MOL     -0.019875
     88 H36         8.3260    4.3900   -1.4550 hc        1 MOL     -0.019875
     89 H37         7.6470    2.5230   -3.1360 hc        1 MOL      0.112734
     90 H38         8.8110    1.5600   -2.3300 hc        1 MOL      0.112734
     91 H39        10.5790    1.4270   -3.8270 hn        1 MOL      0.346819
     92 H40        11.3060    2.7060   -4.7290 hn        1 MOL      0.346819
     93 N9          6.0290    3.1410    1.5610 n         1 MOL     -0.272656
     94 C30         5.5280    3.6920    2.8670 c3        1 MOL     -0.074899
     95 C31         3.9930    3.6740    3.0550 c         1 MOL      0.668034
     96 O16         3.4050    4.4130    3.8100 o         1 MOL     -0.602855
     97 C32         6.2940    3.0480    4.0520 c3        1 MOL      0.438690
     98 C33         5.9710    1.5000    4.1820 c3        1 MOL     -0.351911
     99 C34         7.8300    3.1060    4.0230 c3        1 MOL     -0.351911
    100 H41         5.9100    2.1550    1.3600 hn        1 MOL      0.132393
    101 H42         5.8650    4.7240    3.0000 h1        1 MOL      0.052872
    102 H43         5.9910    3.5250    4.9830 hc        1 MOL     -0.097327
    103 H44         6.4120    0.9910    5.0400 hc        1 MOL      0.072293
    104 H45         4.8930    1.4040    4.3400 hc        1 MOL      0.072293
    105 H46         6.3300    1.0760    3.2430 hc        1 MOL      0.072293
    106 H47         8.0660    4.1550    4.2210 hc        1 MOL      0.072293
    107 H48         8.2590    2.5230    4.8340 hc        1 MOL      0.072293
    108 H49         8.1300    2.7600    3.0330 hc        1 MOL      0.072293
    109 N10         3.3580    2.7160    2.4050 n         1 MOL     -0.713917
    110 C35         1.8690    2.4230    2.4600 c3        1 MOL      0.585517
    111 C36         1.0550    2.9040    1.2510 c         1 MOL      0.470683
    112 O17         1.6160    3.0580    0.1850 o         1 MOL     -0.491626
    113 C37         1.7370    0.9040    2.7580 c3        1 MOL     -0.512009
    114 C38         0.3450    0.3030    2.6300 c         1 MOL      0.608193
    115 N11        -0.0320   -0.4930    1.6040 n         1 MOL     -0.565088
    116 O18        -0.5130    0.6030    3.4810 o         1 MOL     -0.610087
    117 H50         3.9260    2.0490    1.9050 hn        1 MOL      0.336123
    118 H51         1.4070    2.9930    3.2610 h1        1 MOL     -0.026468
    119 H52         1.9820    0.6280    3.7900 hc        1 MOL      0.134708
    120 H53         2.3350    0.3410    2.0510 hc        1 MOL      0.134708
    121 H54         0.7160   -0.9640    1.1100 hn        1 MOL      0.281459
    122 H55        -0.9690   -0.8810    1.6460 hn        1 MOL      0.281459
    123 N12        -0.2620    3.0060    1.4330 n         1 MOL     -0.645745
    124 C39        -1.1020    3.3380    0.3000 c3        1 MOL      0.309375
    125 C40        -2.4850    3.7180    0.6980 c         1 MOL      0.551037
    126 O19        -2.9540    3.3090    1.7360 o         1 MOL     -0.570309
    127 C41        -1.3210    2.0630   -0.5340 c3        1 MOL      0.000940
    128 C42        -1.7550    2.2620   -1.9150 ca        1 MOL     -0.105216
    129 C43        -3.0140    1.8350   -2.2860 ca        1 MOL     -0.041612
    130 C44        -0.9270    3.0020   -2.8700 ca        1 MOL     -0.041612
    131 C45        -3.5200    2.1260   -3.5810 ca        1 MOL     -0.328873
    132 C46        -1.4560    3.2450   -4.1680 ca        1 MOL     -0.328873
    133 C47        -2.7750    2.8550   -4.5090 ca        1 MOL      0.384488
    134 O20        -3.1580    3.0400   -5.7700 oh        1 MOL     -0.506126
    135 H56        -0.6690    2.9290    2.3530 hn        1 MOL      0.328991
    136 H57        -0.7070    4.1780   -0.2700 h1        1 MOL      0.009592
    137 H58        -2.0310    1.4490    0.0200 hc        1 MOL      0.060513
    138 H59        -0.3950    1.5060   -0.6660 hc        1 MOL      0.060513
    139 H60        -3.5400    1.1210   -1.6580 ha        1 MOL      0.120575
    140 H61         0.0250    3.3920   -2.5500 ha        1 MOL      0.120575
    141 H62        -4.5210    1.8210   -3.8710 ha        1 MOL      0.154960
    142 H63        -0.9040    3.8340   -4.8800 ha        1 MOL      0.154960
    143 H64        -4.0270    2.6580   -5.8630 ho        1 MOL      0.361435
    144 N13        -3.1410    4.6580    0.0060 n         1 MOL     -0.577197
    145 C48        -4.5600    4.9340    0.1470 c3        1 MOL      0.224084
    146 C49        -5.2830    4.1170   -0.9220 c         1 MOL      0.527980
    147 O21        -5.3010    4.5140   -2.1360 o         1 MOL     -0.558678
    148 C50        -4.9110    6.4730   -0.0310 c3        1 MOL     -0.028799
    149 C51        -6.3320    6.8720    0.2680 c3        1 MOL     -0.269511
    150 C52        -6.4360    8.3740    0.1480 c         1 MOL      0.733438
    151 O22        -6.3410    9.1110    1.1870 o         1 MOL     -0.696488
    152 O23        -6.8480    8.8750   -0.9190 o         1 MOL     -0.696488
    153 H65        -2.6570    5.0620   -0.7800 hn        1 MOL      0.282705
    154 H66        -4.9470    4.6040    1.1100 h1        1 MOL      0.084566
    155 H67        -4.6940    6.8070   -1.0500 hc        1 MOL      0.020257
    156 H68        -4.2160    7.0590    0.5770 hc        1 MOL      0.020257
    157 H69        -6.5980    6.5670    1.2780 hc        1 MOL      0.074633
    158 H70        -7.0090    6.3630   -0.4110 hc        1 MOL      0.074633
    159 N14        -5.9860    2.9990   -0.5810 n         1 MOL     -0.494159
    160 C53        -5.9730    2.2300    0.6690 c3        1 MOL     -0.067453
    161 C54        -6.6830    2.9710    1.7880 c         1 MOL      0.616049
    162 O24        -7.5070    3.8730    1.5870 o         1 MOL     -0.532568
    163 C55        -6.5120    0.8260    0.4250 c3        1 MOL     -0.417047
    164 C56        -7.8910    0.7410   -0.2260 c3        1 MOL     -0.167828
    165 C57        -8.1830   -0.6460   -0.6640 c         1 MOL      0.555631
    166 O25        -8.1420   -0.9460   -1.9270 o         1 MOL     -0.691061
    167 O26        -8.4110   -1.6240    0.1380 o         1 MOL     -0.691061
    168 H71        -6.5440    2.6020   -1.3220 hn        1 MOL      0.285746
    169 H72        -5.0080    1.8660    1.0400 h1        1 MOL      0.122842
    170 H73        -6.4880    0.1960    1.3100 hc        1 MOL      0.186666
    171 H74        -5.8780    0.4530   -0.3740 hc        1 MOL      0.186666
    172 H75        -7.8430    1.3720   -1.1230 hc        1 MOL      0.111488
    173 H76        -8.7140    1.1730    0.3480 hc        1 MOL      0.111488
    174 N15        -6.2660    2.6420    3.0210 n         1 MOL     -0.454216
    175 C58        -6.4760    3.5280    4.2180 c3        1 MOL     -0.182138
    176 H77        -6.8410    2.9300    5.0530 h1        1 MOL      0.097743
    177 H78        -5.5300    3.9960    4.4940 h1        1 MOL      0.097743
    178 H79        -7.2080    4.2990    3.9770 h1        1 MOL      0.097743
    179 H80        -5.5430    1.9530    3.1220 hn        1 MOL      0.313016
    180 Ca1        -7.9170   -3.6250   -1.4320 Ca        1 MOL      1.720900
    181 O27        -7.8660   -6.2040   -2.0650 oh        1 MOL     -0.848718
    182 H81        -7.2850   -6.9550   -1.9400 ho        1 MOL      0.398859
    183 H82        -8.6130   -6.5540   -2.5460 ho        1 MOL      0.398859
    184 O28       -10.2640   -4.1970    0.0650 oh        1 MOL     -0.848718
    185 H83       -11.0650   -4.3720   -0.4370 ho        1 MOL      0.398859
    186 H84       -10.5820   -3.9980    0.9540 ho        1 MOL      0.398859
    187 O29        -7.2960   -2.8980   -3.9820 oh        1 MOL     -0.848718
    188 H85        -6.9660   -2.0220   -3.8210 ho        1 MOL      0.398859
    189 H86        -7.0740   -3.0680   -4.9000 ho        1 MOL      0.398859
    190 O30       -10.5050   -3.0180   -2.7950 oh        1 MOL     -0.848718
    191 H87       -10.6130   -3.0380   -3.7530 ho        1 MOL      0.398859
    192 H88       -11.3920   -2.9330   -2.4540 ho        1 MOL      0.398859
@<TRIPOS>BOND
     1    1    2 1   
     2    1    4 1   
     3    1    5 1   
     4    1    6 1   
     5    2    3 2   
     6    2    7 1   
     7    7    8 1   
     8    7   15 1   
     9    8    9 1   
    10    8   11 1   
    11    8   16 1   
    12    9   10 2   
    13    9   19 1   
    14   11   12 1   
    15   11   17 1   
    16   11   18 1   
    17   12   13 1   
    18   12   14 1   
    19   19   20 1   
    20   19   27 1   
    21   20   21 1   
    22   20   23 1   
    23   20   28 1   
    24   21   22 2   
    25   21   38 1   
    26   23   24 1   
    27   23   25 1   
    28   23   29 1   
    29   24   26 1   
    30   24   30 1   
    31   24   31 1   
    32   25   32 1   
    33   25   33 1   
    34   25   34 1   
    35   26   35 1   
    36   26   36 1   
    37   26   37 1   
    38   38   39 1   
    39   38   46 1   
    40   39   40 1   
    41   39   42 1   
    42   39   47 1   
    43   40   41 2   
    44   40   50 1   
    45   42   43 1   
    46   42   48 1   
    47   42   49 1   
    48   43   44 1   
    49   43   45 1   
    50   50   51 1   
    51   50   54 1   
    52   51   52 1   
    53   51   55 1   
    54   51   56 1   
    55   52   53 2   
    56   52   57 1   
    57   57   58 1   
    58   57   65 1   
    59   58   59 1   
    60   58   61 1   
    61   58   66 1   
    62   59   60 2   
    63   59   69 1   
    64   61   62 1   
    65   61   67 1   
    66   61   68 1   
    67   62   63 1   
    68   62   64 1   
    69   69   70 1   
    70   69   73 1   
    71   70   71 1   
    72   70   74 1   
    73   70   75 1   
    74   71   72 2   
    75   71   76 1   
    76   76   77 1   
    77   76   85 1   
    78   77   78 1   
    79   77   80 1   
    80   77   86 1   
    81   78   79 2   
    82   78   93 1   
    83   80   81 1   
    84   80   87 1   
    85   80   88 1   
    86   81   82 1   
    87   81   89 1   
    88   81   90 1   
    89   82   83 1   
    90   82   84 2   
    91   83   91 1   
    92   83   92 1   
    93   93   94 1   
    94   93  100 1   
    95   94   95 1   
    96   94   97 1   
    97   94  101 1   
    98   95   96 2   
    99   95  109 1   
   100   97   98 1   
   101   97   99 1   
   102   97  102 1   
   103   98  103 1   
   104   98  104 1   
   105   98  105 1   
   106   99  106 1   
   107   99  107 1   
   108   99  108 1   
   109  109  110 1   
   110  109  117 1   
   111  110  111 1   
   112  110  113 1   
   113  110  118 1   
   114  111  112 2   
   115  111  123 1   
   116  113  114 1   
   117  113  119 1   
   118  113  120 1   
   119  114  115 1   
   120  114  116 2   
   121  115  121 1   
   122  115  122 1   
   123  123  124 1   
   124  123  135 1   
   125  124  125 1   
   126  124  127 1   
   127  124  136 1   
   128  125  126 2   
   129  125  144 1   
   130  127  128 1   
   131  127  137 1   
   132  127  138 1   
   133  128  129 ar  
   134  128  130 ar  
   135  129  131 ar  
   136  129  139 1   
   137  130  132 ar  
   138  130  140 1   
   139  131  133 ar  
   140  131  141 1   
   141  132  133 ar  
   142  132  142 1   
   143  133  134 1   
   144  134  143 1   
   145  144  145 1   
   146  144  153 1   
   147  145  146 1   
   148  145  148 1   
   149  145  154 1   
   150  146  147 2   
   151  146  159 1   
   152  148  149 1   
   153  148  155 1   
   154  148  156 1   
   155  149  150 1   
   156  149  157 1   
   157  149  158 1   
   158  150  151 1   
   159  150  152 1   
   160  159  160 1   
   161  159  168 1   
   162  160  161 1   
   163  160  163 1   
   164  160  169 1   
   165  161  162 2   
   166  161  174 1   
   167  163  164 1   
   168  163  170 1   
   169  163  171 1   
   170  164  165 1   
   171  164  172 1   
   172  164  173 1   
   173  165  166 1   
   174  165  167 1   
   175  174  175 1   
   176  174  179 1   
   177  175  176 1   
   178  175  177 1   
   179  175  178 1   
   180  181  182 1   
   181  181  183 1   
   182  184  185 1   
   183  184  186 1   
   184  187  188 1   
   185  187  189 1   
   186  190  191 1   
   187  190  192 1   
@<TRIPOS>SUBSTRUCTURE
     1 MOL         1 TEMP              0 ****  ****    0 ROOT
