@<TRIPOS>MOLECULE
MOL
  181   177     1     0     0
SMALL
resp


@<TRIPOS>ATOM
      1 C1         12.3190   -6.3470    0.8400 c3        1 MOL     -0.307093
      2 C2         11.5140   -5.6070   -0.2280 c         1 MOL      0.755656
      3 O1         10.8320   -6.2890   -1.0030 o         1 MOL     -0.615074
      4 H1         12.0530   -7.4040    0.8280 hc        1 MOL      0.076444
      5 H2         13.3830   -6.2390    0.6320 hc        1 MOL      0.076444
      6 H3         12.0960   -5.9270    1.8200 hc        1 MOL      0.076444
      7 N1         11.4680   -4.2660   -0.2560 n         1 MOL     -0.741931
      8 C3         12.2000   -3.2660    0.5340 c3        1 MOL      0.180345
      9 C4         12.5050   -1.9580   -0.2380 c         1 MOL      0.366327
     10 O2         13.0980   -1.0350    0.3930 o         1 MOL     -0.528406
     11 C5         11.3610   -2.8470    1.8020 c3        1 MOL     -0.304305
     12 C6          9.9850   -2.2780    1.5050 c         1 MOL      0.850182
     13 O3          9.5320   -2.2310    0.3540 o         1 MOL     -0.776188
     14 O4          9.3890   -1.7820    2.4380 o         1 MOL     -0.776188
     15 H4         10.7590   -4.0170   -0.9300 hn        1 MOL      0.383214
     16 H5         13.1090   -3.7600    0.8810 h1        1 MOL      0.065390
     17 H6         11.9630   -2.1070    2.3250 hc        1 MOL      0.087612
     18 H7         11.2870   -3.7360    2.4280 hc        1 MOL      0.087612
     19 N2         12.1260   -1.8360   -1.5210 n         1 MOL     -0.358122
     20 C7         12.3620   -0.7810   -2.4740 c3        1 MOL      0.295903
     21 C8         11.2620    0.2640   -2.5710 c         1 MOL      0.385556
     22 O5         11.2790    1.0730   -3.4930 o         1 MOL     -0.539783
     23 C9         12.7170   -1.5410   -3.8330 c3        1 MOL     -0.174524
     24 H8         11.6850   -2.6400   -1.9470 hn        1 MOL      0.245981
     25 H9         13.2200   -0.1620   -2.2150 h1        1 MOL      0.034238
     26 H10        13.5720   -2.1410   -3.5150 hc        1 MOL      0.044399
     27 H11        11.9450   -2.2030   -4.2050 hc        1 MOL      0.044399
     28 H12        13.1410   -0.8320   -4.5500 hc        1 MOL      0.044399
     29 N3         10.2540    0.2730   -1.6720 n         1 MOL     -0.334649
     30 C10         9.2090    1.3480   -1.7850 c3        1 MOL      0.112647
     31 C11         8.6190    1.5930   -0.3730 c         1 MOL      0.371552
     32 O6          8.8350    0.8210    0.5590 o         1 MOL     -0.486890
     33 C12         8.1580    0.8550   -2.7070 c3        1 MOL     -0.166866
     34 C13         7.5090   -0.4250   -2.3100 c         1 MOL      0.647787
     35 O7          7.6830   -1.4860   -3.0210 o         1 MOL     -0.667714
     36 O8          6.7900   -0.4610   -1.2850 o         1 MOL     -0.667714
     37 H13        10.2230   -0.3520   -0.8830 hn        1 MOL      0.267446
     38 H14         9.5860    2.3330   -2.0580 h1        1 MOL      0.035313
     39 H15         8.5900    0.6500   -3.6890 hc        1 MOL      0.050149
     40 H16         7.4270    1.6580   -2.8260 hc        1 MOL      0.050149
     41 N4          7.9830    2.7240   -0.1600 n         1 MOL     -0.276581
     42 C14         7.3460    3.1010    1.1300 c3        1 MOL     -0.190134
     43 C15         6.0430    2.4490    1.3980 c         1 MOL      0.387542
     44 O9          5.8350    1.2770    1.1830 o         1 MOL     -0.559251
     45 H17         7.7980    3.2970   -0.9710 hn        1 MOL      0.278252
     46 H18         7.2940    4.1890    1.1970 h1        1 MOL      0.106160
     47 H19         8.0500    2.8510    1.9200 h1        1 MOL      0.106160
     48 N5          5.0550    3.3030    1.6870 n         1 MOL     -0.221899
     49 C16         3.6400    2.8720    1.8930 c3        1 MOL     -0.000520
     50 C17         2.5630    3.8300    1.3300 c         1 MOL      0.592358
     51 O10         2.9890    4.9080    0.8490 o         1 MOL     -0.524846
     52 C18         3.4620    2.5320    3.3320 c3        1 MOL     -0.215168
     53 C19         3.5240    3.7860    4.2220 c         1 MOL      0.698900
     54 N6          4.6920    3.8320    4.9130 n         1 MOL     -0.769659
     55 O11         2.5800    4.4600    4.4750 o         1 MOL     -0.520323
     56 H20         5.3020    4.2730    1.8000 hn        1 MOL      0.201427
     57 H21         3.4220    1.8990    1.4270 h1        1 MOL      0.126516
     58 H22         4.2280    1.8620    3.7180 hc        1 MOL      0.036226
     59 H23         2.4990    2.0720    3.5300 hc        1 MOL      0.036226
     60 H24         5.4030    3.1860    4.6000 hn        1 MOL      0.330425
     61 H25         4.7180    4.5700    5.6100 hn        1 MOL      0.330425
     62 N7          1.2680    3.5070    1.3490 n         1 MOL     -0.707186
     63 C20         0.2550    4.3480    0.6670 c3        1 MOL      0.243470
     64 C21        -0.0280    4.2940   -0.8370 c         1 MOL      0.548009
     65 O12         0.6830    3.6080   -1.5650 o         1 MOL     -0.509650
     66 H26         1.0020    2.5980    1.7200 hn        1 MOL      0.391489
     67 H27         0.4220    5.3850    0.9770 h1        1 MOL      0.064833
     68 H28        -0.7190    4.0590    1.0610 h1        1 MOL      0.064833
     69 N8         -1.0460    5.0380   -1.3670 n         1 MOL     -0.561182
     70 C22        -2.1400    5.8490   -0.7080 c3        1 MOL     -0.050767
     71 C23        -3.3610    4.9650   -0.3960 c         1 MOL      0.399756
     72 O13        -4.0500    5.1920    0.6070 o         1 MOL     -0.534207
     73 C24        -2.5910    6.9840   -1.5750 c3        1 MOL      0.425918
     74 C25        -1.4620    7.9420   -1.9990 c3        1 MOL     -0.483142
     75 O14        -3.1760    6.4700   -2.7520 oh        1 MOL     -0.584256
     76 H29        -1.2620    4.7730   -2.3210 hn        1 MOL      0.337129
     77 H30        -1.7050    6.2860    0.1880 h1        1 MOL      0.070802
     78 H31        -3.2880    7.6290   -1.0300 h1        1 MOL     -0.004977
     79 H32        -3.6820    7.1560   -3.2030 ho        1 MOL      0.388035
     80 H33        -0.6860    7.4410   -2.5790 hc        1 MOL      0.116346
     81 H34        -1.9160    8.7700   -2.5480 hc        1 MOL      0.116346
     82 H35        -1.0080    8.3380   -1.0940 hc        1 MOL      0.116346
     83 N9         -3.6320    3.9220   -1.1990 n         1 MOL     -0.255935
     84 C26        -4.7940    2.9790   -1.1230 c3        1 MOL      0.309800
     85 C27        -4.2530    1.6320   -0.5430 c         1 MOL      0.298736
     86 O15        -3.1760    1.1300   -0.8640 o         1 MOL     -0.513807
     87 C28        -5.4830    2.9470   -2.5180 c3        1 MOL     -0.052075
     88 C29        -6.0370    4.3410   -2.9920 c3        1 MOL     -0.121958
     89 C30        -6.6930    2.0250   -2.5460 c3        1 MOL      0.046334
     90 C31        -6.4090    5.4650   -1.9900 c3        1 MOL     -0.278004
     91 H36        -2.9810    3.7300   -1.9390 hn        1 MOL      0.192628
     92 H37        -5.5480    3.3460   -0.4180 h1        1 MOL      0.056561
     93 H38        -4.8620    2.5250   -3.3160 hc        1 MOL      0.062427
     94 H39        -6.8520    4.1300   -3.6940 hc        1 MOL      0.036737
     95 H40        -5.2070    4.7790   -3.5610 hc        1 MOL      0.036737
     96 H41        -6.5520    1.0240   -2.1410 hc        1 MOL     -0.004023
     97 H42        -7.4790    2.4900   -1.9600 hc        1 MOL     -0.004023
     98 H43        -7.1460    1.8560   -3.5190 hc        1 MOL     -0.004023
     99 H44        -7.3020    5.1250   -1.4680 hc        1 MOL      0.063558
    100 H45        -5.6270    5.7190   -1.2660 hc        1 MOL      0.063558
    101 H46        -6.7910    6.3250   -2.5500 hc        1 MOL      0.063558
    102 N10        -5.0590    0.9910    0.2930 n         1 MOL     -0.221262
    103 C32        -6.4370    1.3830    0.8820 c3        1 MOL      0.003661
    104 C33        -7.3080    0.1450    0.8320 c         1 MOL      0.545051
    105 O16        -6.8090   -0.9750    0.6130 o         1 MOL     -0.426844
    106 C34        -6.3140    2.0210    2.2830 c3        1 MOL     -0.274491
    107 C35        -5.4010    1.1600    3.1580 c         1 MOL      0.759748
    108 O17        -4.4630    1.7140    3.7440 o         1 MOL     -0.722142
    109 O18        -5.6080   -0.0320    3.3300 o         1 MOL     -0.722142
    110 H47        -4.8000    0.0220    0.4040 hn        1 MOL      0.243193
    111 H48        -6.9300    2.1220    0.2590 h1        1 MOL      0.032283
    112 H49        -7.2780    2.0450    2.7850 hc        1 MOL      0.038268
    113 H50        -5.9160    3.0380    2.1560 hc        1 MOL      0.038268
    114 N11        -8.5820    0.3740    0.9930 n         1 MOL     -0.589316
    115 C36        -9.6910   -0.6470    0.9790 c3        1 MOL      0.426759
    116 C37       -10.0970   -1.0080   -0.5180 c         1 MOL      0.192165
    117 O19       -10.3610   -0.1020   -1.3730 o         1 MOL     -0.512456
    118 C38       -10.9170   -0.0540    1.6760 c3        1 MOL     -0.234817
    119 C39       -12.1190   -1.0450    1.7370 ca        1 MOL      0.162919
    120 C40       -13.0370   -1.1580    0.6940 ca        1 MOL     -0.234004
    121 C41       -12.2310   -1.8940    2.8590 ca        1 MOL     -0.234004
    122 C42       -14.0570   -2.0830    0.7190 ca        1 MOL     -0.019370
    123 C43       -13.1940   -2.9250    2.8620 ca        1 MOL     -0.019370
    124 C44       -14.1830   -2.9640    1.8860 ca        1 MOL     -0.228414
    125 H51        -8.7700    1.3660    1.0430 hn        1 MOL      0.293033
    126 H52        -9.3320   -1.4760    1.5720 h1        1 MOL      0.038562
    127 H53       -11.2630    0.8590    1.1890 hc        1 MOL      0.076489
    128 H54       -10.5640    0.2790    2.6500 hc        1 MOL      0.076489
    129 H55       -12.8860   -0.4960   -0.1570 ha        1 MOL      0.141626
    130 H56       -11.4350   -1.9110    3.5780 ha        1 MOL      0.141626
    131 H57       -14.7610   -2.1300   -0.1060 ha        1 MOL      0.088790
    132 H58       -13.3000   -3.5760    3.7200 ha        1 MOL      0.088790
    133 H59       -14.8900   -3.7810    1.8130 ha        1 MOL      0.119386
    134 N12       -10.2440   -2.2880   -0.8420 n         1 MOL     -0.026853
    135 C45        -9.8320   -3.3790    0.1160 c3        1 MOL      0.163015
    136 C46        -8.3220   -3.5950    0.2480 c         1 MOL      0.182569
    137 O20        -7.8950   -3.9110    1.3630 o         1 MOL     -0.507263
    138 C47       -10.4170   -4.6600   -0.5370 c3        1 MOL      0.077525
    139 C48       -11.6830   -4.1620   -1.2730 c3        1 MOL     -0.280553
    140 C49       -11.2230   -2.8090   -1.8020 c3        1 MOL     -0.032180
    141 H60       -10.4500   -3.2240    1.0040 h1        1 MOL     -0.006970
    142 H61        -9.7400   -5.0990   -1.2680 hc        1 MOL      0.014908
    143 H62       -10.6350   -5.4320    0.1930 hc        1 MOL      0.014908
    144 H63       -11.9240   -4.7960   -2.1330 hc        1 MOL      0.082537
    145 H64       -12.5100   -3.9530   -0.6010 hc        1 MOL      0.082537
    146 H65       -10.6240   -3.0350   -2.6800 h1        1 MOL      0.067252
    147 H66       -11.9740   -2.0970   -2.1420 h1        1 MOL      0.067252
    148 N13        -7.5750   -3.5300   -0.8530 n         1 MOL     -0.143629
    149 C50        -6.1590   -4.0320   -0.9300 c3        1 MOL      0.192323
    150 C51        -6.1170   -5.5680   -0.9130 c         1 MOL      0.294737
    151 O21        -6.5440   -6.2370   -1.8520 o         1 MOL     -0.552164
    152 C52        -5.5780   -3.4340   -2.2610 c3        1 MOL      0.017181
    153 C53        -5.4560   -1.8780   -2.1310 c3        1 MOL     -0.226270
    154 C54        -5.0850   -1.2870   -3.4770 c         1 MOL      0.734157
    155 O22        -3.9250   -1.0570   -3.8050 o         1 MOL     -0.709707
    156 O23        -6.0500   -0.9600   -4.2540 o         1 MOL     -0.709707
    157 H67        -8.0650   -3.2140   -1.6880 hn        1 MOL      0.205987
    158 H68        -5.5450   -3.5640   -0.1640 h1        1 MOL      0.055101
    159 H69        -6.2230   -3.7400   -3.0840 hc        1 MOL      0.002584
    160 H70        -4.5730   -3.8210   -2.4080 hc        1 MOL      0.002584
    161 H71        -4.6810   -1.6240   -1.4000 hc        1 MOL      0.046654
    162 H72        -6.3730   -1.3560   -1.8550 hc        1 MOL      0.046654
    163 N14        -5.6630   -6.2220    0.1700 n         1 MOL     -0.208306
    164 C55        -5.0950   -5.7110    1.3890 c3        1 MOL     -0.185716
    165 H73        -5.5670   -6.1980    2.2420 h1        1 MOL      0.088847
    166 H74        -4.0240   -5.9130    1.4040 h1        1 MOL      0.088847
    167 H75        -5.2620   -4.6360    1.4470 h1        1 MOL      0.088847
    168 H76        -5.7760   -7.2250    0.0600 hn        1 MOL      0.228437
    169 Ca1         7.1990   -1.1340    1.2200 Ca        1 MOL      1.748192
    170 O24         6.5200   -3.0690    2.7660 oh        1 MOL     -0.803097
    171 H77         5.6000   -3.2560    2.9570 ho        1 MOL      0.394061
    172 H78         6.9330   -3.9280    2.6980 ho        1 MOL      0.394061
    173 O25         7.0750   -3.5410   -0.3140 oh        1 MOL     -0.803097
    174 H79         7.7140   -3.7130   -0.9920 ho        1 MOL      0.394061
    175 H80         6.6470   -4.3850   -0.1520 ho        1 MOL      0.394061
    176 O26         7.2020   -0.1630    3.6720 oh        1 MOL     -0.803097
    177 H81         6.5280   -0.4040    4.3090 ho        1 MOL      0.394061
    178 H82         7.3380    0.7740    3.8100 ho        1 MOL      0.394061
    179 O27         4.5300   -1.4870    0.8140 oh        1 MOL     -0.803097
    180 H83         4.1090   -1.8390    0.0240 ho        1 MOL      0.394061
    181 H84         3.8940   -0.8670    1.1700 ho        1 MOL      0.394061
@<TRIPOS>BOND
     1    1    2 1   
     2    1    4 1   
     3    1    5 1   
     4    1    6 1   
     5    2    3 2   
     6    2    7 1   
     7    7    8 1   
     8    7   15 1   
     9    8    9 1   
    10    8   11 1   
    11    8   16 1   
    12    9   10 2   
    13    9   19 1   
    14   11   12 1   
    15   11   17 1   
    16   11   18 1   
    17   12   13 1   
    18   12   14 1   
    19   19   20 1   
    20   19   24 1   
    21   20   21 1   
    22   20   23 1   
    23   20   25 1   
    24   21   22 2   
    25   21   29 1   
    26   23   26 1   
    27   23   27 1   
    28   23   28 1   
    29   29   30 1   
    30   29   37 1   
    31   30   31 1   
    32   30   33 1   
    33   30   38 1   
    34   31   32 2   
    35   31   41 1   
    36   33   34 1   
    37   33   39 1   
    38   33   40 1   
    39   34   35 1   
    40   34   36 1   
    41   41   42 1   
    42   41   45 1   
    43   42   43 1   
    44   42   46 1   
    45   42   47 1   
    46   43   44 2   
    47   43   48 1   
    48   48   49 1   
    49   48   56 1   
    50   49   50 1   
    51   49   52 1   
    52   49   57 1   
    53   50   51 2   
    54   50   62 1   
    55   52   53 1   
    56   52   58 1   
    57   52   59 1   
    58   53   54 1   
    59   53   55 2   
    60   54   60 1   
    61   54   61 1   
    62   62   63 1   
    63   62   66 1   
    64   63   64 1   
    65   63   67 1   
    66   63   68 1   
    67   64   65 2   
    68   64   69 1   
    69   69   70 1   
    70   69   76 1   
    71   70   71 1   
    72   70   73 1   
    73   70   77 1   
    74   71   72 2   
    75   71   83 1   
    76   73   74 1   
    77   73   75 1   
    78   73   78 1   
    79   74   80 1   
    80   74   81 1   
    81   74   82 1   
    82   75   79 1   
    83   83   84 1   
    84   83   91 1   
    85   84   85 1   
    86   84   87 1   
    87   84   92 1   
    88   85   86 2   
    89   85  102 1   
    90   87   88 1   
    91   87   89 1   
    92   87   93 1   
    93   88   90 1   
    94   88   94 1   
    95   88   95 1   
    96   89   96 1   
    97   89   97 1   
    98   89   98 1   
    99   90   99 1   
   100   90  100 1   
   101   90  101 1   
   102  102  103 1   
   103  102  110 1   
   104  103  104 1   
   105  103  106 1   
   106  103  111 1   
   107  104  105 2   
   108  104  114 1   
   109  106  107 1   
   110  106  112 1   
   111  106  113 1   
   112  107  108 1   
   113  107  109 1   
   114  114  115 1   
   115  114  125 1   
   116  115  116 1   
   117  115  118 1   
   118  115  126 1   
   119  116  117 2   
   120  116  134 1   
   121  118  119 1   
   122  118  127 1   
   123  118  128 1   
   124  119  120 ar  
   125  119  121 ar  
   126  120  122 ar  
   127  120  129 1   
   128  121  123 ar  
   129  121  130 1   
   130  122  124 ar  
   131  122  131 1   
   132  123  124 ar  
   133  123  132 1   
   134  124  133 1   
   135  134  135 1   
   136  134  140 1   
   137  135  136 1   
   138  135  138 1   
   139  135  141 1   
   140  136  137 2   
   141  136  148 1   
   142  138  139 1   
   143  138  142 1   
   144  138  143 1   
   145  139  140 1   
   146  139  144 1   
   147  139  145 1   
   148  140  146 1   
   149  140  147 1   
   150  148  149 1   
   151  148  157 1   
   152  149  150 1   
   153  149  152 1   
   154  149  158 1   
   155  150  151 2   
   156  150  163 1   
   157  152  153 1   
   158  152  159 1   
   159  152  160 1   
   160  153  154 1   
   161  153  161 1   
   162  153  162 1   
   163  154  155 1   
   164  154  156 1   
   165  163  164 1   
   166  163  168 1   
   167  164  165 1   
   168  164  166 1   
   169  164  167 1   
   170  170  171 1   
   171  170  172 1   
   172  173  174 1   
   173  173  175 1   
   174  176  177 1   
   175  176  178 1   
   176  179  180 1   
   177  179  181 1   
@<TRIPOS>SUBSTRUCTURE
     1 MOL         1 TEMP              0 ****  ****    0 ROOT
