@<TRIPOS>MOLECULE
MOL
  179   176     1     0     0
SMALL
resp


@<TRIPOS>ATOM
      1 C1          1.9210   -4.3190    6.3560 c3        1 MOL     -0.335962
      2 C2          2.0370   -4.3570    4.8110 c         1 MOL      0.685957
      3 O1          1.2250   -5.0390    4.1170 o         1 MOL     -0.548194
      4 H1          1.7840   -5.3320    6.7350 hc        1 MOL      0.092935
      5 H2          2.8310   -3.8930    6.7790 hc        1 MOL      0.092935
      6 H3          1.0660   -3.7060    6.6420 hc        1 MOL      0.092935
      7 N1          2.8860   -3.4420    4.2470 n         1 MOL     -0.511699
      8 C3          2.9210   -3.0280    2.8520 c3        1 MOL     -0.140293
      9 C4          3.4230   -4.1790    1.9160 c         1 MOL      0.711919
     10 O2          4.3440   -4.9050    2.2120 o         1 MOL     -0.567518
     11 C5          3.9890   -1.8880    2.6780 c3        1 MOL     -0.295699
     12 C6          3.8200   -1.2150    1.3120 c         1 MOL      0.551740
     13 O3          4.2870   -0.0890    1.1940 o         1 MOL     -0.647536
     14 O4          3.1460   -1.7240    0.3840 o         1 MOL     -0.647536
     15 H4          3.3970   -2.7450    4.7800 hn        1 MOL      0.301650
     16 H5          1.9620   -2.6030    2.5640 h1        1 MOL      0.017085
     17 H6          4.9810   -2.3240    2.7980 hc        1 MOL      0.134414
     18 H7          3.6290   -1.1380    3.3800 hc        1 MOL      0.134414
     19 N2          2.7780   -4.3200    0.7770 n         1 MOL     -0.382212
     20 C7          3.0740   -5.4290   -0.2140 c3        1 MOL      0.070187
     21 C8          4.2630   -5.1170   -1.1740 c         1 MOL      0.420981
     22 O5          4.8020   -5.9920   -1.8740 o         1 MOL     -0.541561
     23 C9          1.7740   -5.7170   -0.9330 c3        1 MOL     -0.108034
     24 C10         1.2670   -4.5740   -1.8050 c3        1 MOL      0.223672
     25 C11         0.1000   -4.9540   -2.7310 c3        1 MOL     -0.170029
     26 C12         0.7160   -5.6870   -3.8930 c3        1 MOL      0.167656
     27 N3         -0.3200   -6.3260   -4.7390 n4        1 MOL     -0.396476
     28 H8          2.1690   -3.5600    0.4800 hn        1 MOL      0.033873
     29 H9          3.4100   -6.3060    0.3250 h1        1 MOL      0.115209
     30 H10         0.9830   -6.0370   -0.2560 hc        1 MOL      0.023501
     31 H11         2.0910   -6.5570   -1.5610 hc        1 MOL      0.023501
     32 H12         2.0450   -4.2260   -2.4830 hc        1 MOL     -0.012776
     33 H13         0.9670   -3.7330   -1.1750 hc        1 MOL     -0.012776
     34 H14        -0.4240   -4.0490   -3.0480 hc        1 MOL      0.039872
     35 H15        -0.6660   -5.5220   -2.2020 hc        1 MOL      0.039872
     36 H16         1.3200   -6.5250   -3.5570 hx        1 MOL      0.053290
     37 H17         1.3650   -5.0600   -4.5070 hx        1 MOL      0.053290
     38 H18        -0.8300   -7.0190   -4.2140 hn        1 MOL      0.315554
     39 H19        -0.9570   -5.6360   -5.0940 hn        1 MOL      0.315554
     40 H20         0.1550   -6.8370   -5.4710 hn        1 MOL      0.315554
     41 N4          4.5120   -3.8440   -1.3150 n         1 MOL     -0.335905
     42 C13         5.5070   -3.3180   -2.2480 c3        1 MOL      0.053701
     43 C14         6.7040   -2.5270   -1.7130 c         1 MOL      0.482691
     44 O6          7.7810   -2.4030   -2.3650 o         1 MOL     -0.539592
     45 C15         4.7970   -2.5250   -3.3840 c3        1 MOL     -0.425139
     46 C16         3.9370   -1.3970   -2.8370 c         1 MOL      0.870655
     47 O7          2.6800   -1.4090   -3.0410 o         1 MOL     -0.840044
     48 O8          4.3970   -0.5620   -2.0250 o         1 MOL     -0.840044
     49 H21         3.9090   -3.2400   -0.7780 hn        1 MOL      0.340788
     50 H22         6.0270   -4.1730   -2.6740 h1        1 MOL      0.105074
     51 H23         4.1580   -3.1750   -3.9920 hc        1 MOL      0.133716
     52 H24         5.5790   -2.1240   -4.0340 hc        1 MOL      0.133716
     53 N5          6.5100   -1.9820   -0.4940 n         1 MOL     -0.107032
     54 C17         7.4650   -1.2810    0.3510 c3        1 MOL     -0.428179
     55 C18         7.6010    0.2270    0.0460 c         1 MOL      0.627596
     56 O9          8.5270    0.8560    0.5180 o         1 MOL     -0.556306
     57 H25         5.5310   -1.7480   -0.3710 hn        1 MOL      0.023193
     58 H26         8.4160   -1.7780    0.1360 h1        1 MOL      0.197626
     59 H27         7.0750   -1.2890    1.3640 h1        1 MOL      0.197626
     60 N6          6.7260    0.8670   -0.7070 n         1 MOL     -0.306043
     61 C19         6.8610    2.2370   -1.1580 c3        1 MOL      0.141132
     62 C20         5.4710    2.8570   -1.0980 c         1 MOL      0.651845
     63 O10         4.5140    2.0970   -0.9250 o         1 MOL     -0.670685
     64 C21         7.4550    2.2370   -2.5840 c3        1 MOL     -0.491736
     65 C22         7.9080    3.6560   -3.0320 c         1 MOL      0.753266
     66 N7          7.4430    4.2140   -4.1210 n         1 MOL     -0.837417
     67 O11         8.6960    4.2640   -2.3380 o         1 MOL     -0.562506
     68 H28         5.9450    0.3980   -1.1300 hn        1 MOL      0.328218
     69 H29         7.5030    2.7670   -0.4560 h1        1 MOL      0.046081
     70 H30         6.7290    1.7900   -3.2670 hc        1 MOL      0.145144
     71 H31         8.4050    1.7090   -2.6240 hc        1 MOL      0.145144
     72 H32         6.9270    3.6240   -4.7670 hn        1 MOL      0.375806
     73 H33         7.7350    5.1570   -4.3120 hn        1 MOL      0.375806
     74 N8          5.3700    4.1880   -1.0930 n         1 MOL     -0.458969
     75 C23         4.1020    4.8690   -1.2470 c3        1 MOL     -0.029216
     76 C24         3.3210    4.9710    0.0230 c         1 MOL      0.621428
     77 O12         3.9230    5.1360    1.1200 o         1 MOL     -0.510456
     78 H34         6.2450    4.6910   -1.2010 hn        1 MOL      0.324554
     79 H35         3.5740    4.2100   -1.9480 h1        1 MOL      0.050422
     80 H36         4.2720    5.8320   -1.7310 h1        1 MOL      0.050422
     81 N9          2.0100    4.7150   -0.0280 n         1 MOL     -0.626915
     82 C25         1.1140    4.5350    1.1210 c3        1 MOL      0.313224
     83 C26         1.2870    3.0380    1.7050 c         1 MOL      0.451929
     84 O13         2.1900    2.3000    1.2250 o         1 MOL     -0.449773
     85 C27        -0.3110    4.8420    0.7670 c3        1 MOL     -0.018218
     86 C28        -0.6080    6.3010    0.4030 ca        1 MOL     -0.018400
     87 C29        -1.3070    6.6210   -0.8160 ca        1 MOL     -0.169436
     88 C30        -0.0990    7.3860    1.1810 ca        1 MOL     -0.169436
     89 C31        -1.5350    7.9320   -1.2180 ca        1 MOL     -0.212307
     90 C32        -0.1750    8.7160    0.6670 ca        1 MOL     -0.212307
     91 C33        -1.0070    9.0090   -0.4480 ca        1 MOL      0.321035
     92 O14        -1.3860   10.2960   -0.6080 oh        1 MOL     -0.472080
     93 H37         1.6280    4.6080   -0.9550 hn        1 MOL      0.270492
     94 H38         1.3220    5.2760    1.8970 h1        1 MOL      0.059436
     95 H39        -0.8520    4.6480    1.6940 hc        1 MOL      0.002807
     96 H40        -0.7370    4.2340   -0.0270 hc        1 MOL      0.002807
     97 H41        -1.6300    5.8440   -1.4960 ha        1 MOL      0.140339
     98 H42         0.3750    7.2330    2.1390 ha        1 MOL      0.140339
     99 H43        -1.9950    8.0210   -2.1990 ha        1 MOL      0.143435
    100 H44         0.1290    9.4880    1.3590 ha        1 MOL      0.143435
    101 H45        -2.3120   10.3670   -0.8510 ho        1 MOL      0.373398
    102 N10         0.3600    2.5690    2.5720 n         1 MOL     -0.684586
    103 C34         0.1180    1.2380    3.1970 c3        1 MOL     -0.024331
    104 C35        -0.1360    0.1220    2.1740 c         1 MOL      0.543416
    105 O15         0.7280   -0.3280    1.4260 o         1 MOL     -0.259736
    106 C36         1.2580    0.9250    4.2010 c3        1 MOL      0.201847
    107 C37         0.9510   -0.4700    4.8690 c3        1 MOL     -0.145367
    108 C38         1.3510    1.9910    5.3260 c3        1 MOL     -0.399676
    109 C39        -0.2180   -0.6200    5.8500 c3        1 MOL     -0.073307
    110 H46        -0.3460    3.1750    2.9510 hn        1 MOL      0.352339
    111 H47        -0.8390    1.4630    3.6650 h1        1 MOL      0.099372
    112 H48         2.1950    0.7880    3.6580 hc        1 MOL      0.050439
    113 H49         1.8550   -0.7920    5.3900 hc        1 MOL      0.052363
    114 H50         0.8720   -1.2470    4.1060 hc        1 MOL      0.052363
    115 H51         1.9340    2.8630    5.0010 hc        1 MOL      0.115367
    116 H52         0.3920    2.3970    5.6560 hc        1 MOL      0.115367
    117 H53         1.9210    1.6940    6.2060 hc        1 MOL      0.115367
    118 H54        -0.0820    0.0920    6.6620 hc        1 MOL      0.028870
    119 H55        -1.1630   -0.3180    5.3930 hc        1 MOL      0.028870
    120 H56        -0.2790   -1.6120    6.2730 hc        1 MOL      0.028870
    121 N11        -1.3860   -0.3910    2.1230 n         1 MOL     -0.422155
    122 C40        -1.8360   -1.3470    1.1190 c3        1 MOL     -0.190287
    123 C41        -3.3510   -1.2880    1.0670 c         1 MOL      0.698902
    124 O16        -4.0530   -1.8100    1.9010 o         1 MOL     -0.546268
    125 C42        -1.4690   -2.7900    1.4300 c3        1 MOL      0.040861
    126 O17        -0.0910   -2.9060    1.0780 oh        1 MOL     -0.326523
    127 H57        -2.0500   -0.1220    2.8310 hn        1 MOL      0.287176
    128 H58        -1.3700   -0.9670    0.2100 h1        1 MOL      0.125611
    129 H59        -1.9620   -3.4900    0.7580 h1        1 MOL      0.088286
    130 H60        -1.7100   -2.9680    2.4730 h1        1 MOL      0.088286
    131 H61         0.3230   -2.0470    1.1660 ho        1 MOL      0.268358
    132 N12        -3.9260   -0.6680    0.0770 n         1 MOL     -0.760167
    133 C43        -5.3480   -0.5730   -0.2710 c3        1 MOL      0.457885
    134 C44        -5.5090   -0.5090   -1.8050 c         1 MOL      0.472216
    135 O18        -4.5300   -0.2200   -2.5140 o         1 MOL     -0.600319
    136 C45        -6.0150    0.4920    0.5450 c3        1 MOL     -0.338010
    137 H62        -3.2720   -0.1270   -0.4770 hn        1 MOL      0.322444
    138 H63        -5.7870   -1.5090    0.0670 h1        1 MOL      0.013828
    139 H64        -5.3690    1.3740    0.5010 hc        1 MOL      0.090218
    140 H65        -7.0060    0.7150    0.1720 hc        1 MOL      0.090218
    141 H66        -6.1450    0.1200    1.5660 hc        1 MOL      0.090218
    142 N13        -6.6550   -0.8040   -2.3920 n         1 MOL     -0.516642
    143 C46        -7.9170   -1.2490   -1.7530 c3        1 MOL      0.172417
    144 C47        -9.0990   -0.3280   -2.1810 c         1 MOL      0.424750
    145 O19        -9.0000    0.3100   -3.1960 o         1 MOL     -0.529012
    146 C48        -8.1530   -2.6800   -2.3110 c3        1 MOL     -0.211651
    147 H67        -6.7360   -0.7670   -3.3960 hn        1 MOL      0.348344
    148 H68        -7.8150   -1.3070   -0.6710 h1        1 MOL      0.049612
    149 H69        -8.1270   -2.6700   -3.3990 hc        1 MOL      0.064003
    150 H70        -7.3350   -3.3500   -2.0130 hc        1 MOL      0.064003
    151 H71        -9.0620   -3.1240   -1.9200 hc        1 MOL      0.064003
    152 N14       -10.1870   -0.2830   -1.3980 n         1 MOL     -0.151863
    153 C49       -10.3840   -0.7660    0.0350 c3        1 MOL     -0.518977
    154 C50        -9.9770    0.2510    1.1000 c         1 MOL      0.677451
    155 O20        -9.6360   -0.1110    2.2180 o         1 MOL     -0.570676
    156 C51       -11.7210   -1.5320    0.2610 c3        1 MOL      0.248291
    157 C52       -13.0830   -0.8660    0.0200 c3        1 MOL     -0.128227
    158 C53       -13.3030   -0.4860   -1.4620 c         1 MOL      0.665051
    159 O21       -12.7480    0.5610   -1.8620 o         1 MOL     -0.661648
    160 O22       -13.8240   -1.3190   -2.2060 o         1 MOL     -0.661648
    161 H72       -10.9610    0.1210   -1.8850 hn        1 MOL      0.219879
    162 H73        -9.7020   -1.6080    0.1650 h1        1 MOL      0.125493
    163 H74       -11.7460   -1.9930    1.2410 hc        1 MOL     -0.001589
    164 H75       -11.7930   -2.3990   -0.4080 hc        1 MOL     -0.001589
    165 H76       -12.9950    0.0590    0.5810 hc        1 MOL     -0.013201
    166 H77       -13.8820   -1.5500    0.3330 hc        1 MOL     -0.013201
    167 N15        -9.9190    1.5510    0.7480 n         1 MOL     -0.210341
    168 C54        -9.5770    2.7100    1.6520 c3        1 MOL     -0.348540
    169 H78        -9.2610    3.5610    1.0470 h1        1 MOL      0.136143
    170 H79       -10.4550    2.9870    2.2360 h1        1 MOL      0.136143
    171 H80        -8.7680    2.4230    2.3230 h1        1 MOL      0.136143
    172 H81       -10.2160    1.7370   -0.1980 hn        1 MOL      0.193655
    173 Ca1         2.4790    0.4800   -0.7180 Ca        1 MOL      1.797472
    174 O23         0.1900    2.0550   -1.0840 oh        1 MOL     -0.945061
    175 H82        -0.7460    1.8880   -1.1530 ho        1 MOL      0.449505
    176 H83         0.3320    2.8410   -1.6170 ho        1 MOL      0.449505
    177 O24         0.3770   -1.0580   -1.7830 oh        1 MOL     -0.945061
    178 H84         0.9020   -1.3770   -2.5190 ho        1 MOL      0.449505
    179 H85        -0.5210   -1.3130   -2.0100 ho        1 MOL      0.449505
@<TRIPOS>BOND
     1    1    2 1   
     2    1    4 1   
     3    1    5 1   
     4    1    6 1   
     5    2    3 2   
     6    2    7 1   
     7    7    8 1   
     8    7   15 1   
     9    8    9 1   
    10    8   11 1   
    11    8   16 1   
    12    9   10 2   
    13    9   19 1   
    14   11   12 1   
    15   11   17 1   
    16   11   18 1   
    17   12   13 1   
    18   12   14 1   
    19   19   20 1   
    20   19   28 1   
    21   20   21 1   
    22   20   23 1   
    23   20   29 1   
    24   21   22 2   
    25   21   41 1   
    26   23   24 1   
    27   23   30 1   
    28   23   31 1   
    29   24   25 1   
    30   24   32 1   
    31   24   33 1   
    32   25   26 1   
    33   25   34 1   
    34   25   35 1   
    35   26   27 1   
    36   26   36 1   
    37   26   37 1   
    38   27   38 1   
    39   27   39 1   
    40   27   40 1   
    41   41   42 1   
    42   41   49 1   
    43   42   43 1   
    44   42   45 1   
    45   42   50 1   
    46   43   44 2   
    47   43   53 1   
    48   45   46 1   
    49   45   51 1   
    50   45   52 1   
    51   46   47 1   
    52   46   48 1   
    53   53   54 1   
    54   53   57 1   
    55   54   55 1   
    56   54   58 1   
    57   54   59 1   
    58   55   56 2   
    59   55   60 1   
    60   60   61 1   
    61   60   68 1   
    62   61   62 1   
    63   61   64 1   
    64   61   69 1   
    65   62   63 2   
    66   62   74 1   
    67   64   65 1   
    68   64   70 1   
    69   64   71 1   
    70   65   66 1   
    71   65   67 2   
    72   66   72 1   
    73   66   73 1   
    74   74   75 1   
    75   74   78 1   
    76   75   76 1   
    77   75   79 1   
    78   75   80 1   
    79   76   77 2   
    80   76   81 1   
    81   81   82 1   
    82   81   93 1   
    83   82   83 1   
    84   82   85 1   
    85   82   94 1   
    86   83   84 2   
    87   83  102 1   
    88   85   86 1   
    89   85   95 1   
    90   85   96 1   
    91   86   87 ar  
    92   86   88 ar  
    93   87   89 ar  
    94   87   97 1   
    95   88   90 ar  
    96   88   98 1   
    97   89   91 ar  
    98   89   99 1   
    99   90   91 ar  
   100   90  100 1   
   101   91   92 1   
   102   92  101 1   
   103  102  103 1   
   104  102  110 1   
   105  103  104 1   
   106  103  106 1   
   107  103  111 1   
   108  104  105 2   
   109  104  121 1   
   110  106  107 1   
   111  106  108 1   
   112  106  112 1   
   113  107  109 1   
   114  107  113 1   
   115  107  114 1   
   116  108  115 1   
   117  108  116 1   
   118  108  117 1   
   119  109  118 1   
   120  109  119 1   
   121  109  120 1   
   122  121  122 1   
   123  121  127 1   
   124  122  123 1   
   125  122  125 1   
   126  122  128 1   
   127  123  124 2   
   128  123  132 1   
   129  125  126 1   
   130  125  129 1   
   131  125  130 1   
   132  126  131 1   
   133  132  133 1   
   134  132  137 1   
   135  133  134 1   
   136  133  136 1   
   137  133  138 1   
   138  134  135 2   
   139  134  142 1   
   140  136  139 1   
   141  136  140 1   
   142  136  141 1   
   143  142  143 1   
   144  142  147 1   
   145  143  144 1   
   146  143  146 1   
   147  143  148 1   
   148  144  145 2   
   149  144  152 1   
   150  146  149 1   
   151  146  150 1   
   152  146  151 1   
   153  152  153 1   
   154  152  161 1   
   155  153  154 1   
   156  153  156 1   
   157  153  162 1   
   158  154  155 2   
   159  154  167 1   
   160  156  157 1   
   161  156  163 1   
   162  156  164 1   
   163  157  158 1   
   164  157  165 1   
   165  157  166 1   
   166  158  159 1   
   167  158  160 1   
   168  167  168 1   
   169  167  172 1   
   170  168  169 1   
   171  168  170 1   
   172  168  171 1   
   173  174  175 1   
   174  174  176 1   
   175  177  178 1   
   176  177  179 1   
@<TRIPOS>SUBSTRUCTURE
     1 MOL         1 TEMP              0 ****  ****    0 ROOT
