@<TRIPOS>MOLECULE
MOL
  181   177     1     0     0
SMALL
resp


@<TRIPOS>ATOM
      1 C1         -1.5430   -6.1870   -2.9600 c3        1 MOL     -0.370644
      2 C2         -2.7710   -5.5960   -2.3340 c         1 MOL      0.738517
      3 O1         -3.0020   -6.0460   -1.2230 o         1 MOL     -0.576305
      4 H1         -1.8030   -7.1200   -3.4590 hc        1 MOL      0.085499
      5 H2         -1.1330   -5.4870   -3.6890 hc        1 MOL      0.085499
      6 H3         -0.8000   -6.3830   -2.1880 hc        1 MOL      0.085499
      7 N1         -3.6150   -4.7490   -3.0110 n         1 MOL     -0.600352
      8 C3         -4.9480   -4.4340   -2.4710 c3        1 MOL      0.023141
      9 C4         -4.8930   -3.5720   -1.1050 c         1 MOL      0.594987
     10 O2         -4.2500   -2.5220   -1.0090 o         1 MOL     -0.539803
     11 C5         -5.5680   -3.5490   -3.5090 c3        1 MOL     -0.311401
     12 C6         -6.9950   -3.2580   -3.1610 c         1 MOL      0.838685
     13 O3         -7.4330   -2.1270   -3.2080 o         1 MOL     -0.768483
     14 O4         -7.7260   -4.2480   -2.9270 o         1 MOL     -0.768483
     15 H4         -3.3390   -4.5310   -3.9610 hn        1 MOL      0.325793
     16 H5         -5.4670   -5.3940   -2.4140 h1        1 MOL      0.098078
     17 H6         -5.4640   -4.1430   -4.4160 hc        1 MOL      0.053585
     18 H7         -5.0630   -2.5860   -3.6350 hc        1 MOL      0.053585
     19 N2         -5.4600   -4.1420   -0.0550 n         1 MOL     -0.489972
     20 C7         -5.4480   -3.6480    1.3570 c3        1 MOL      0.518674
     21 C8         -4.0490   -3.7560    2.0460 c         1 MOL      0.345413
     22 O5         -3.2360   -4.6230    1.6420 o         1 MOL     -0.528281
     23 C9         -6.4470   -4.4530    2.1920 c3        1 MOL     -0.433091
     24 H8         -5.9360   -5.0190   -0.1670 hn        1 MOL      0.262285
     25 H9         -5.5690   -2.5670    1.3150 h1        1 MOL     -0.087387
     26 H10        -6.3180   -4.0950    3.2170 hc        1 MOL      0.110110
     27 H11        -7.4550   -4.3260    1.8040 hc        1 MOL      0.110110
     28 H12        -6.1300   -5.5000    2.1590 hc        1 MOL      0.110110
     29 N3         -3.6170   -2.9560    3.0790 n         1 MOL     -0.296338
     30 C10        -4.3840   -1.8220    3.6530 c3        1 MOL     -0.054975
     31 C11        -4.3820   -0.5650    2.7100 c         1 MOL      0.605052
     32 O6         -3.3510   -0.1930    2.0720 o         1 MOL     -0.560501
     33 C12        -3.8290   -1.4510    5.0510 c3        1 MOL     -0.270422
     34 C13        -2.3300   -1.2040    5.1340 c         1 MOL      0.689189
     35 O7         -1.8860   -0.9660    6.2880 o         1 MOL     -0.679804
     36 O8         -1.5540   -1.2230    4.1690 o         1 MOL     -0.679804
     37 H13        -2.6820   -3.0900    3.4170 hn        1 MOL      0.243294
     38 H14        -5.4300   -2.1330    3.7280 h1        1 MOL      0.042988
     39 H15        -3.9980   -2.3120    5.7040 hc        1 MOL      0.085570
     40 H16        -4.3670   -0.5950    5.4460 hc        1 MOL      0.085570
     41 N4         -5.4800    0.1700    2.5910 n         1 MOL     -0.470067
     42 C14        -5.8490    1.2220    1.5940 c3        1 MOL      0.024283
     43 C15        -6.5630    0.6780    0.3870 c         1 MOL      0.689296
     44 O9         -6.8320   -0.5030    0.2930 o         1 MOL     -0.506285
     45 H17        -6.2710   -0.0850    3.1750 hn        1 MOL      0.268591
     46 H18        -5.0290    1.8590    1.2550 h1        1 MOL      0.065036
     47 H19        -6.5890    1.8920    2.0360 h1        1 MOL      0.065036
     48 N5         -6.8630    1.5130   -0.6350 n         1 MOL     -0.787692
     49 C16        -6.9530    2.9560   -0.5080 c3        1 MOL      0.340674
     50 C17        -5.9320    3.6950   -1.4280 c         1 MOL      0.429147
     51 O10        -6.2920    4.7680   -1.8660 o         1 MOL     -0.532589
     52 C18        -8.4280    3.3140   -0.7540 c3        1 MOL     -0.217893
     53 C19        -9.3630    2.7210    0.2090 c         1 MOL      0.637315
     54 N6        -10.2030    1.8190   -0.2770 n         1 MOL     -0.801844
     55 O11        -9.4090    3.0420    1.4300 o         1 MOL     -0.568543
     56 H20        -7.2020    1.1250   -1.5060 hn        1 MOL      0.400026
     57 H21        -6.7230    3.2840    0.5130 h1        1 MOL      0.000185
     58 H22        -8.7560    3.0750   -1.7670 hc        1 MOL      0.064690
     59 H23        -8.3540    4.3890   -0.5770 hc        1 MOL      0.064690
     60 H24       -10.2540    1.5280   -1.2400 hn        1 MOL      0.379743
     61 H25       -10.8420    1.3520    0.3600 hn        1 MOL      0.379743
     62 N7         -4.9400    3.0170   -1.9460 n         1 MOL     -0.220005
     63 C20        -4.1790    3.4370   -3.1570 c3        1 MOL     -0.364388
     64 C21        -2.8640    4.2180   -2.9680 c         1 MOL      0.578941
     65 O12        -2.1280    4.5220   -3.9440 o         1 MOL     -0.567309
     66 H26        -4.7560    2.0880   -1.5990 hn        1 MOL      0.272120
     67 H27        -4.8060    4.0810   -3.7820 h1        1 MOL      0.170586
     68 H28        -3.8670    2.5310   -3.6770 h1        1 MOL      0.170586
     69 N8         -2.5080    4.5130   -1.7280 n         1 MOL     -0.284826
     70 C22        -1.2210    5.1370   -1.3490 c3        1 MOL     -0.026718
     71 C23        -0.0970    4.0720   -1.1940 c         1 MOL      0.501839
     72 O13        -0.3770    2.8520   -1.3610 o         1 MOL     -0.517685
     73 C24        -1.4040    5.9720   -0.0930 c3        1 MOL      0.385262
     74 C25        -2.3250    7.1620   -0.3520 c3        1 MOL     -0.426824
     75 O14        -1.9190    5.1180    0.8270 oh        1 MOL     -0.570722
     76 H29        -3.0720    4.1350   -0.9850 hn        1 MOL      0.186970
     77 H30        -0.9240    5.8100   -2.1510 h1        1 MOL      0.066875
     78 H31        -0.4160    6.3070    0.2030 h1        1 MOL     -0.013106
     79 H32        -1.2060    4.7820    1.3780 ho        1 MOL      0.373254
     80 H33        -1.9140    7.7620   -1.1560 hc        1 MOL      0.110167
     81 H34        -3.3270    6.8910   -0.6910 hc        1 MOL      0.110167
     82 H35        -2.5440    7.7470    0.5420 hc        1 MOL      0.110167
     83 N9          1.1590    4.5580   -1.0450 n         1 MOL     -0.463808
     84 C26         2.3780    3.5960   -0.9800 c3        1 MOL     -0.024305
     85 C27         2.8620    3.5840    0.4520 c         1 MOL      0.391595
     86 O15         3.0780    4.6240    1.0220 o         1 MOL     -0.543043
     87 C28         3.3840    3.9200   -2.0580 c3        1 MOL      0.144022
     88 C29         4.6800    3.1380   -1.6910 c3        1 MOL      0.196706
     89 C30         2.8230    3.6730   -3.4790 c3        1 MOL     -0.279499
     90 C31         5.7550    3.1640   -2.7460 c3        1 MOL     -0.272297
     91 H36         1.3280    5.5550   -1.0120 hn        1 MOL      0.282433
     92 H37         1.9940    2.5990   -1.1940 h1        1 MOL      0.241124
     93 H38         3.7100    4.9580   -1.9380 hc        1 MOL     -0.017623
     94 H39         4.4560    2.0930   -1.5180 hc        1 MOL     -0.023007
     95 H40         5.1050    3.5010   -0.7460 hc        1 MOL     -0.023007
     96 H41         1.9320    4.2980   -3.5600 hc        1 MOL      0.066529
     97 H42         3.5840    3.9430   -4.2110 hc        1 MOL      0.066529
     98 H43         2.5130    2.6410   -3.6460 hc        1 MOL      0.066529
     99 H44         5.3450    2.5460   -3.5420 hc        1 MOL      0.044814
    100 H45         5.8960    4.2050   -3.0290 hc        1 MOL      0.044814
    101 H46         6.7380    2.8390   -2.4140 hc        1 MOL      0.044814
    102 N10         3.0720    2.4380    1.0530 n         1 MOL      0.000243
    103 C32         3.8300    2.2710    2.3080 c3        1 MOL     -0.034459
    104 C33         5.3040    1.6270    2.2510 c         1 MOL      0.404183
    105 O16         6.1770    1.9140    3.1330 o         1 MOL     -0.527925
    106 C34         2.9970    1.4360    3.3270 c3        1 MOL      0.059042
    107 C35         1.5610    1.9730    3.6080 c         1 MOL      0.646823
    108 O17         1.4490    3.0650    4.1670 o         1 MOL     -0.681379
    109 O18         0.6110    1.2040    3.3800 o         1 MOL     -0.681379
    110 H47         2.8450    1.6130    0.5200 hn        1 MOL     -0.223668
    111 H48         3.9130    3.2050    2.8640 h1        1 MOL      0.076910
    112 H49         3.5370    1.3800    4.2720 hc        1 MOL     -0.027792
    113 H50         2.9030    0.4340    2.9290 hc        1 MOL     -0.027792
    114 N11         5.5240    0.8060    1.1840 n         1 MOL     -0.301447
    115 C36         6.7880    0.0790    1.0360 c3        1 MOL      0.148893
    116 C37         6.5320   -1.2410    0.2620 c         1 MOL      0.269177
    117 O19         6.9700   -1.3290   -0.8890 o         1 MOL     -0.528972
    118 C38         7.9230    0.9510    0.4550 c3        1 MOL     -0.388430
    119 C39         9.3110    0.3030    0.4910 ca        1 MOL      0.247822
    120 C40         9.9070    0.1360    1.7170 ca        1 MOL     -0.164917
    121 C41        10.1230    0.2660   -0.6050 ca        1 MOL     -0.164917
    122 C42        11.2520   -0.3410    1.8730 ca        1 MOL     -0.158737
    123 C43        11.4750   -0.0090   -0.5340 ca        1 MOL     -0.158737
    124 C44        11.9850   -0.4140    0.6960 ca        1 MOL     -0.088390
    125 H51         4.7810    0.5970    0.5370 hn        1 MOL      0.317812
    126 H52         7.1090   -0.2510    2.0280 h1        1 MOL      0.033544
    127 H53         8.0360    1.8890    1.0010 hc        1 MOL      0.140734
    128 H54         7.5810    1.3050   -0.5180 hc        1 MOL      0.140734
    129 H55         9.3550    0.1630    2.6380 ha        1 MOL      0.115434
    130 H56         9.6480    0.4930   -1.5510 ha        1 MOL      0.115434
    131 H57        11.5630   -0.7200    2.8350 ha        1 MOL      0.118815
    132 H58        12.1040    0.1130   -1.4100 ha        1 MOL      0.118815
    133 H59        13.0300   -0.6810    0.7770 ha        1 MOL      0.077867
    134 N12         5.5820   -2.0770    0.6750 n         1 MOL      0.052247
    135 C45         5.3600   -3.4530    0.1190 c3        1 MOL     -0.024921
    136 C46         4.6480   -3.5180   -1.2180 c         1 MOL      0.164018
    137 O20         4.5520   -4.5020   -1.9640 o         1 MOL     -0.492201
    138 C47         4.5720   -4.1740    1.1720 c3        1 MOL     -0.127214
    139 C48         4.9310   -3.4710    2.4780 c3        1 MOL     -0.210072
    140 C49         4.9050   -2.0550    1.9780 c3        1 MOL     -0.129880
    141 H60         6.3610   -3.8850    0.1630 h1        1 MOL      0.121116
    142 H61         3.4960   -4.1550    1.0130 hc        1 MOL      0.098690
    143 H62         5.0090   -5.1610    1.3240 hc        1 MOL      0.098690
    144 H63         4.1530   -3.6260    3.2230 hc        1 MOL      0.077189
    145 H64         5.9080   -3.8270    2.8100 hc        1 MOL      0.077189
    146 H65         3.8770   -1.7290    1.8210 h1        1 MOL      0.097870
    147 H66         5.3920   -1.3290    2.6270 h1        1 MOL      0.097870
    148 N13         4.0890   -2.3880   -1.6690 n         1 MOL      0.234609
    149 C50         3.6070   -2.1820   -3.0480 c3        1 MOL     -0.533209
    150 C51         4.7640   -2.2220   -4.0820 c         1 MOL      0.668347
    151 O21         4.6340   -2.7830   -5.1510 o         1 MOL     -0.572869
    152 C52         2.7660   -0.9040   -3.1280 c3        1 MOL      0.313975
    153 C53         1.6440   -0.6270   -2.0920 c3        1 MOL     -0.129240
    154 C54         2.0140   -0.3430   -0.5920 c         1 MOL      0.599917
    155 O22         1.1830   -0.0490    0.2820 o         1 MOL     -0.619455
    156 O23         3.2140   -0.2310   -0.3090 o         1 MOL     -0.619455
    157 H67         3.8750   -1.5610   -1.1330 hn        1 MOL      0.040279
    158 H68         2.8990   -2.9950   -3.1810 h1        1 MOL      0.152056
    159 H69         2.2770   -0.8680   -4.1020 hc        1 MOL     -0.043021
    160 H70         3.4400   -0.0550   -3.1710 hc        1 MOL     -0.043021
    161 H71         1.0350   -1.5300   -2.1700 hc        1 MOL      0.013941
    162 H72         1.0800    0.2410   -2.4180 hc        1 MOL      0.013941
    163 N14         5.7840   -1.4760   -3.7950 n         1 MOL     -0.274161
    164 C55         6.9640   -1.4490   -4.6740 c3        1 MOL     -0.350480
    165 H73         7.6530   -0.6750   -4.3340 h1        1 MOL      0.128185
    166 H74         7.4640   -2.4170   -4.6440 h1        1 MOL      0.128185
    167 H75         6.6520   -1.2330   -5.6960 h1        1 MOL      0.128185
    168 H76         5.9230   -1.0910   -2.8770 hn        1 MOL      0.282334
    169 Ca1        -0.5370   -0.6020    1.9610 Ca        1 MOL      1.709542
    170 O24        -1.3450    2.0410    1.4530 oh        1 MOL     -0.839336
    171 H77        -0.8010    2.5830    2.0300 ho        1 MOL      0.408429
    172 H78        -1.1620    2.3780    0.5740 ho        1 MOL      0.408429
    173 O25         1.5990   -1.6380    3.4970 oh        1 MOL     -0.839336
    174 H79         1.5270   -2.1800    4.2830 ho        1 MOL      0.408429
    175 H80         2.4210   -1.1610    3.6140 ho        1 MOL      0.408429
    176 O26        -1.8030   -1.1680   -0.3060 oh        1 MOL     -0.839336
    177 H81        -1.8260   -0.6190   -1.0920 ho        1 MOL      0.408429
    178 H82        -2.4860   -1.8240   -0.4500 ho        1 MOL      0.408429
    179 O27        -0.5150   -3.2260    1.0880 oh        1 MOL     -0.839336
    180 H83        -1.3660   -3.6460    0.9210 ho        1 MOL      0.408429
    181 H84         0.1250   -3.9170    0.9550 ho        1 MOL      0.408429
@<TRIPOS>BOND
     1    1    2 1   
     2    1    4 1   
     3    1    5 1   
     4    1    6 1   
     5    2    3 2   
     6    2    7 1   
     7    7    8 1   
     8    7   15 1   
     9    8    9 1   
    10    8   11 1   
    11    8   16 1   
    12    9   10 2   
    13    9   19 1   
    14   11   12 1   
    15   11   17 1   
    16   11   18 1   
    17   12   13 1   
    18   12   14 1   
    19   19   20 1   
    20   19   24 1   
    21   20   21 1   
    22   20   23 1   
    23   20   25 1   
    24   21   22 2   
    25   21   29 1   
    26   23   26 1   
    27   23   27 1   
    28   23   28 1   
    29   29   30 1   
    30   29   37 1   
    31   30   31 1   
    32   30   33 1   
    33   30   38 1   
    34   31   32 2   
    35   31   41 1   
    36   33   34 1   
    37   33   39 1   
    38   33   40 1   
    39   34   35 1   
    40   34   36 1   
    41   41   42 1   
    42   41   45 1   
    43   42   43 1   
    44   42   46 1   
    45   42   47 1   
    46   43   44 2   
    47   43   48 1   
    48   48   49 1   
    49   48   56 1   
    50   49   50 1   
    51   49   52 1   
    52   49   57 1   
    53   50   51 2   
    54   50   62 1   
    55   52   53 1   
    56   52   58 1   
    57   52   59 1   
    58   53   54 1   
    59   53   55 2   
    60   54   60 1   
    61   54   61 1   
    62   62   63 1   
    63   62   66 1   
    64   63   64 1   
    65   63   67 1   
    66   63   68 1   
    67   64   65 2   
    68   64   69 1   
    69   69   70 1   
    70   69   76 1   
    71   70   71 1   
    72   70   73 1   
    73   70   77 1   
    74   71   72 2   
    75   71   83 1   
    76   73   74 1   
    77   73   75 1   
    78   73   78 1   
    79   74   80 1   
    80   74   81 1   
    81   74   82 1   
    82   75   79 1   
    83   83   84 1   
    84   83   91 1   
    85   84   85 1   
    86   84   87 1   
    87   84   92 1   
    88   85   86 2   
    89   85  102 1   
    90   87   88 1   
    91   87   89 1   
    92   87   93 1   
    93   88   90 1   
    94   88   94 1   
    95   88   95 1   
    96   89   96 1   
    97   89   97 1   
    98   89   98 1   
    99   90   99 1   
   100   90  100 1   
   101   90  101 1   
   102  102  103 1   
   103  102  110 1   
   104  103  104 1   
   105  103  106 1   
   106  103  111 1   
   107  104  105 2   
   108  104  114 1   
   109  106  107 1   
   110  106  112 1   
   111  106  113 1   
   112  107  108 1   
   113  107  109 1   
   114  114  115 1   
   115  114  125 1   
   116  115  116 1   
   117  115  118 1   
   118  115  126 1   
   119  116  117 2   
   120  116  134 1   
   121  118  119 1   
   122  118  127 1   
   123  118  128 1   
   124  119  120 ar  
   125  119  121 ar  
   126  120  122 ar  
   127  120  129 1   
   128  121  123 ar  
   129  121  130 1   
   130  122  124 ar  
   131  122  131 1   
   132  123  124 ar  
   133  123  132 1   
   134  124  133 1   
   135  134  135 1   
   136  134  140 1   
   137  135  136 1   
   138  135  138 1   
   139  135  141 1   
   140  136  137 2   
   141  136  148 1   
   142  138  139 1   
   143  138  142 1   
   144  138  143 1   
   145  139  140 1   
   146  139  144 1   
   147  139  145 1   
   148  140  146 1   
   149  140  147 1   
   150  148  149 1   
   151  148  157 1   
   152  149  150 1   
   153  149  152 1   
   154  149  158 1   
   155  150  151 2   
   156  150  163 1   
   157  152  153 1   
   158  152  159 1   
   159  152  160 1   
   160  153  154 1   
   161  153  161 1   
   162  153  162 1   
   163  154  155 1   
   164  154  156 1   
   165  163  164 1   
   166  163  168 1   
   167  164  165 1   
   168  164  166 1   
   169  164  167 1   
   170  170  171 1   
   171  170  172 1   
   172  173  174 1   
   173  173  175 1   
   174  176  177 1   
   175  176  178 1   
   176  179  180 1   
   177  179  181 1   
@<TRIPOS>SUBSTRUCTURE
     1 MOL         1 TEMP              0 ****  ****    0 ROOT
