@<TRIPOS>MOLECULE
MOL
  192   187     1     0     0
SMALL
resp


@<TRIPOS>ATOM
      1 C1         10.9700    6.3330   -2.7070 c3        1 MOL     -0.222466
      2 C2         10.8940    4.9850   -2.1320 c         1 MOL      0.610810
      3 O1         11.8150    4.2040   -2.4330 o         1 MOL     -0.577462
      4 H1         11.8910    6.4320   -3.2800 hc        1 MOL      0.069106
      5 H2         10.1150    6.4980   -3.3630 hc        1 MOL      0.069106
      6 H3         10.9600    7.0720   -1.9050 hc        1 MOL      0.069106
      7 N1          9.8770    4.5100   -1.3250 n         1 MOL     -0.225294
      8 C3          9.7200    3.2520   -0.5880 c3        1 MOL     -0.230693
      9 C4          8.3860    2.6010   -0.8800 c         1 MOL      0.696780
     10 O2          7.3480    3.2830   -0.9630 o         1 MOL     -0.711111
     11 C5         10.0510    3.3760    0.8600 c3        1 MOL     -0.131311
     12 C6          9.3010    4.5260    1.6140 c         1 MOL      0.714049
     13 O3          9.5390    4.7700    2.8220 o         1 MOL     -0.699987
     14 O4          8.5620    5.2800    1.0200 o         1 MOL     -0.699987
     15 H4          9.0780    5.0890   -1.1180 hn        1 MOL      0.119265
     16 H5         10.4880    2.5630   -0.9370 h1        1 MOL      0.076620
     17 H6         11.1100    3.5920    0.8870 hc        1 MOL      0.073096
     18 H7          9.8830    2.4670    1.4480 hc        1 MOL      0.073096
     19 N2          8.2490    1.2770   -0.8530 n         1 MOL     -0.596791
     20 C7          7.1880    0.4870   -1.4350 c3        1 MOL      0.415539
     21 C8          6.2630   -0.2170   -0.3940 c         1 MOL      0.132454
     22 O5          5.6940   -1.2210   -0.7110 o         1 MOL     -0.392358
     23 C9          7.7800   -0.4770   -2.4950 c3        1 MOL     -0.407322
     24 C10         8.5160   -1.7460   -1.9270 c3        1 MOL      0.031889
     25 C11         8.9780   -2.6670   -3.0410 c3        1 MOL      0.017908
     26 C12         9.8010   -3.9040   -2.6480 c3        1 MOL     -0.162761
     27 N3         11.1150   -3.5000   -2.1330 n4        1 MOL     -0.369453
     28 H8          8.9800    0.8110   -0.3470 hn        1 MOL      0.330916
     29 H9          6.5100    1.1530   -1.9640 h1        1 MOL      0.049545
     30 H10         8.5060    0.0340   -3.1220 hc        1 MOL      0.121947
     31 H11         6.8930   -0.7740   -3.0700 hc        1 MOL      0.121947
     32 H12         7.8110   -2.3240   -1.3220 hc        1 MOL      0.031192
     33 H13         9.4570   -1.5750   -1.3940 hc        1 MOL      0.031192
     34 H14         9.5080   -2.0320   -3.7550 hc        1 MOL      0.040792
     35 H15         8.1440   -3.1260   -3.5730 hc        1 MOL      0.040792
     36 H16        10.0020   -4.5500   -3.5050 hx        1 MOL      0.168448
     37 H17         9.3570   -4.4720   -1.8340 hx        1 MOL      0.168448
     38 H18        11.0570   -3.1900   -1.1700 hn        1 MOL      0.334976
     39 H19        11.7640   -4.2720   -2.2340 hn        1 MOL      0.334976
     40 H20        11.4640   -2.6810   -2.6260 hn        1 MOL      0.334976
     41 N4          6.0830    0.3450    0.7970 n         1 MOL     -0.192215
     42 C13         5.1730   -0.1170    1.8730 c3        1 MOL      0.074390
     43 C14         3.7030   -0.2530    1.3640 c         1 MOL      0.387095
     44 O6          3.2350    0.5820    0.5610 o         1 MOL     -0.557079
     45 C15         5.1690    0.8980    3.0590 c3        1 MOL     -0.079887
     46 C16         5.4970    2.3910    2.7010 c         1 MOL      0.543012
     47 O7          4.6800    3.3400    2.8960 o         1 MOL     -0.631159
     48 O8          6.6290    2.6270    2.2220 o         1 MOL     -0.631159
     49 H21         6.6010    1.2040    0.9110 hn        1 MOL      0.124346
     50 H22         5.5320   -1.0530    2.2990 h1        1 MOL      0.100118
     51 H23         5.9780    0.4940    3.6750 hc        1 MOL      0.050869
     52 H24         4.2400    0.8500    3.6170 hc        1 MOL      0.050869
     53 N5          2.8020   -1.1160    1.9230 n         1 MOL     -0.241763
     54 C17         3.1100   -2.1840    2.8680 c3        1 MOL     -0.147298
     55 C18         3.4410   -3.5010    2.1220 c         1 MOL      0.565931
     56 O9          3.8610   -3.5220    0.9640 o         1 MOL     -0.508920
     57 H25         1.9010   -1.1860    1.4580 hn        1 MOL      0.253656
     58 H26         2.2460   -2.4200    3.4810 h1        1 MOL      0.088585
     59 H27         3.8930   -1.9660    3.5970 h1        1 MOL      0.088585
     60 N6          2.9860   -4.6140    2.7260 n         1 MOL     -0.314451
     61 C19         3.4060   -5.9830    2.3960 c3        1 MOL     -0.132513
     62 C20         2.7030   -6.4430    1.1000 c         1 MOL      0.554261
     63 O10         3.3600   -7.1660    0.2960 o         1 MOL     -0.551272
     64 C21         3.2840   -7.0210    3.5130 c3        1 MOL     -0.309700
     65 C22         4.1360   -6.6950    4.7140 c         1 MOL      0.775589
     66 O11         3.7010   -6.0890    5.7470 o         1 MOL     -0.731232
     67 O12         5.3190   -7.1420    4.7990 o         1 MOL     -0.731232
     68 H28         2.4350   -4.5560    3.5620 hn        1 MOL      0.222843
     69 H29         4.4580   -5.9200    2.1020 h1        1 MOL      0.128084
     70 H30         3.6770   -7.9540    3.1170 hc        1 MOL      0.090939
     71 H31         2.3070   -7.2570    3.9160 hc        1 MOL      0.090939
     72 N7          1.4740   -6.0070    0.6750 n         1 MOL     -0.402670
     73 C23         0.8010   -6.1770   -0.6270 c3        1 MOL      0.036745
     74 C24         0.7650   -4.8680   -1.4530 c         1 MOL      0.475902
     75 O13        -0.0590   -4.7500   -2.3140 o         1 MOL     -0.580101
     76 H32         1.0750   -5.3240    1.3060 hn        1 MOL      0.247648
     77 H33        -0.2200   -6.4820   -0.4050 h1        1 MOL      0.069894
     78 H34         1.2910   -6.9850   -1.1580 h1        1 MOL      0.069894
     79 N8          1.5880   -3.8750   -1.2050 n         1 MOL     -0.261097
     80 C25         1.4100   -2.5490   -1.8580 c3        1 MOL      0.010629
     81 C26         0.6020   -1.6140   -1.0030 c         1 MOL      0.558363
     82 O14         0.5900   -1.7030    0.2120 o         1 MOL     -0.487382
     83 C27         2.8320   -1.9690   -2.1390 c3        1 MOL      0.534897
     84 C28         3.6560   -2.8370   -3.0460 c3        1 MOL     -0.423656
     85 O15         2.7150   -0.7310   -2.7270 oh        1 MOL     -0.656188
     86 H35         2.1170   -3.9160   -0.3380 hn        1 MOL      0.124516
     87 H36         0.9120   -2.6550   -2.8240 h1        1 MOL      0.091659
     88 H37         3.4350   -1.9000   -1.2280 h1        1 MOL     -0.019334
     89 H38         3.2070   -0.0820   -2.2350 ho        1 MOL      0.367446
     90 H39         3.2600   -2.8490   -4.0650 hc        1 MOL      0.098518
     91 H40         4.6270   -2.3450   -2.9970 hc        1 MOL      0.098518
     92 H41         3.8460   -3.8230   -2.6320 hc        1 MOL      0.098518
     93 N9         -0.1230   -0.5990   -1.6060 n         1 MOL     -0.364919
     94 C29        -0.8160    0.4100   -0.8090 c3        1 MOL     -0.390645
     95 C30        -2.2760    0.0730   -0.5900 c         1 MOL      0.574911
     96 O16        -2.8290    0.8240    0.2380 o         1 MOL     -0.534012
     97 C31        -0.6850    1.7970   -1.4870 c3        1 MOL      0.588214
     98 C32        -1.0310    1.7140   -3.0040 c3        1 MOL      0.028806
     99 C33         0.6500    2.3770   -1.2280 c3        1 MOL     -0.272217
    100 C34        -1.3220    3.1040   -3.5420 c3        1 MOL     -0.247270
    101 H42        -0.0610   -0.4780   -2.6090 hn        1 MOL      0.206413
    102 H43        -0.3720    0.4240    0.1850 h1        1 MOL      0.187247
    103 H44        -1.4050    2.4240   -0.9580 hc        1 MOL     -0.073411
    104 H45        -1.9550    1.1560   -3.0420 hc        1 MOL     -0.005342
    105 H46        -0.2590    1.1610   -3.5490 hc        1 MOL     -0.005342
    106 H47         0.7670    2.3030   -0.1460 hc        1 MOL      0.018321
    107 H48         1.4690    1.8470   -1.7140 hc        1 MOL      0.018321
    108 H49         0.6020    3.4480   -1.4160 hc        1 MOL      0.018321
    109 H50        -1.9720    3.5830   -2.8130 hc        1 MOL      0.054102
    110 H51        -0.3700    3.6090   -3.7030 hc        1 MOL      0.054102
    111 H52        -1.8830    3.0880   -4.4760 hc        1 MOL      0.054102
    112 N10        -2.8240   -1.0680   -1.1490 n         1 MOL     -0.371608
    113 C35        -4.0710   -1.5840   -0.7490 c3        1 MOL      0.002836
    114 C36        -4.9860   -1.7630   -1.9870 c         1 MOL      0.552897
    115 O17        -4.5140   -2.2650   -3.0410 o         1 MOL     -0.525045
    116 C37        -4.0330   -2.7340    0.2490 c3        1 MOL      0.431053
    117 C38        -3.4370   -4.0590   -0.1720 c3        1 MOL     -0.322956
    118 O18        -3.1640   -2.3030    1.3430 oh        1 MOL     -0.615658
    119 H53        -2.2300   -1.6750   -1.6970 hn        1 MOL      0.221665
    120 H54        -4.5820   -0.7090   -0.3520 h1        1 MOL      0.009768
    121 H55        -5.0210   -2.9460    0.6700 h1        1 MOL     -0.040379
    122 H56        -3.6370   -1.6800    1.9070 ho        1 MOL      0.379354
    123 H57        -2.4790   -3.7790   -0.6070 hc        1 MOL      0.093949
    124 H58        -3.4330   -4.6770    0.7270 hc        1 MOL      0.093949
    125 H59        -4.1370   -4.5210   -0.8780 hc        1 MOL      0.093949
    126 N11        -6.2770   -1.5760   -1.7170 n         1 MOL     -0.498067
    127 C39        -7.4580   -2.2490   -2.3980 c3        1 MOL     -0.030534
    128 C40        -8.7600   -1.4430   -2.3450 c         1 MOL      0.561625
    129 O19        -9.5050   -1.5520   -3.3000 o         1 MOL     -0.537705
    130 C41        -7.6940   -3.6560   -1.7240 c3        1 MOL      0.323000
    131 C42        -9.0450   -4.3420   -1.9730 c3        1 MOL     -0.429110
    132 O20        -7.6020   -3.5320   -0.2740 oh        1 MOL     -0.629641
    133 H60        -6.4470   -1.0560   -0.8740 hn        1 MOL      0.292338
    134 H61        -7.2870   -2.3610   -3.4680 h1        1 MOL      0.108694
    135 H62        -6.9550   -4.3490   -2.1190 h1        1 MOL      0.070908
    136 H63        -8.4490   -3.8050    0.0770 ho        1 MOL      0.398935
    137 H64        -9.7600   -3.8100   -1.3430 hc        1 MOL      0.112309
    138 H65        -9.3110   -4.2060   -3.0210 hc        1 MOL      0.112309
    139 H66        -9.0480   -5.3870   -1.6550 hc        1 MOL      0.112309
    140 N12        -9.0540   -0.7010   -1.2950 n         1 MOL     -0.293658
    141 C43       -10.0170    0.3470   -1.2490 c3        1 MOL     -0.024391
    142 C44        -9.7250    1.3980   -0.2650 c         1 MOL      0.553686
    143 O21        -9.0350    1.1040    0.7020 o         1 MOL     -0.495336
    144 C45       -11.4310   -0.1710   -0.9810 c3        1 MOL     -0.330880
    145 C46       -11.5750   -0.9940    0.3630 c3        1 MOL     -0.091321
    146 C47       -12.9550   -1.6620    0.6230 c3        1 MOL      0.057838
    147 C48       -12.8580   -2.4760    1.9320 c3        1 MOL      0.124940
    148 N13       -14.0850   -3.1270    2.2170 n4        1 MOL     -0.247626
    149 H67        -8.4220   -0.7380   -0.5020 hn        1 MOL      0.195610
    150 H68       -10.0110    0.9400   -2.1650 h1        1 MOL      0.090262
    151 H69       -11.7110   -0.7430   -1.8640 hc        1 MOL      0.136728
    152 H70       -12.1520    0.6230   -0.7900 hc        1 MOL      0.136728
    153 H71       -11.4470   -0.2430    1.1500 hc        1 MOL      0.062744
    154 H72       -10.7820   -1.7220    0.4760 hc        1 MOL      0.062744
    155 H73       -13.2160   -2.3610   -0.1680 hc        1 MOL      0.002134
    156 H74       -13.7580   -0.9250    0.7110 hc        1 MOL      0.002134
    157 H75       -12.5000   -1.7540    2.6610 hx        1 MOL      0.032597
    158 H76       -12.0940   -3.2380    1.7910 hx        1 MOL      0.032597
    159 H77       -14.2400   -3.7630    1.4550 hn        1 MOL      0.249925
    160 H78       -14.0470   -3.6890    3.0560 hn        1 MOL      0.249925
    161 H79       -14.8420   -2.4690    2.2820 hn        1 MOL      0.249925
    162 N14       -10.2690    2.5810   -0.3740 n         1 MOL     -0.485018
    163 C49       -10.4600    3.4290    0.8420 c3        1 MOL      0.278984
    164 C50        -9.1990    3.8360    1.5760 c         1 MOL      0.230564
    165 O22        -9.0550    3.6320    2.7870 o         1 MOL     -0.487325
    166 C51       -11.2670    4.7060    0.5470 c3        1 MOL     -0.129014
    167 C52       -11.6670    5.7370    1.5960 c3        1 MOL     -0.098319
    168 C53       -12.3650    6.9920    0.9800 c         1 MOL      0.667964
    169 O23       -11.5800    7.8770    0.5790 o         1 MOL     -0.635289
    170 O24       -13.5730    7.2220    1.1920 o         1 MOL     -0.635289
    171 H80       -10.9150    2.6960   -1.1350 hn        1 MOL      0.273426
    172 H81       -11.0370    2.7720    1.4970 h1        1 MOL      0.040503
    173 H82       -12.1990    4.4560    0.0350 hc        1 MOL      0.019329
    174 H83       -10.6960    5.3110   -0.1590 hc        1 MOL      0.019329
    175 H84       -10.7930    6.0210    2.1850 hc        1 MOL      0.026357
    176 H85       -12.3220    5.1600    2.2360 hc        1 MOL      0.026357
    177 N15        -8.1680    4.4950    0.9300 n         1 MOL     -0.204427
    178 C54        -7.9450    4.8150   -0.5180 c3        1 MOL     -0.112536
    179 H86        -7.1210    5.5230   -0.6100 h1        1 MOL      0.068841
    180 H87        -7.7000    3.9020   -1.0600 h1        1 MOL      0.068841
    181 H88        -8.8500    5.2550   -0.9370 h1        1 MOL      0.068841
    182 H89        -7.3850    4.7250    1.5370 hn        1 MOL      0.263955
    183 Ca1         6.0310    4.6890    0.8440 Ca        1 MOL      1.784187
    184 O25         3.5040    5.7100    1.4220 oh        1 MOL     -0.926861
    185 H90         2.8180    6.2070    1.8700 ho        1 MOL      0.459540
    186 H91         3.0240    5.1580    0.7960 ho        1 MOL      0.459540
    187 O26         4.2190    2.8810   -0.2030 oh        1 MOL     -0.926861
    188 H92         4.3960    2.5650   -1.0890 ho        1 MOL      0.459540
    189 H93         3.7110    2.1800    0.2050 ho        1 MOL      0.459540
    190 O27         6.0960    5.8710    3.3440 oh        1 MOL     -0.926861
    191 H94         5.3580    5.8200    3.9560 ho        1 MOL      0.459540
    192 H95         6.8680    5.9780    3.8910 ho        1 MOL      0.459540
@<TRIPOS>BOND
     1    1    2 1   
     2    1    4 1   
     3    1    5 1   
     4    1    6 1   
     5    2    3 2   
     6    2    7 1   
     7    7    8 1   
     8    7   15 1   
     9    8    9 1   
    10    8   11 1   
    11    8   16 1   
    12    9   10 2   
    13    9   19 1   
    14   11   12 1   
    15   11   17 1   
    16   11   18 1   
    17   12   13 1   
    18   12   14 1   
    19   19   20 1   
    20   19   28 1   
    21   20   21 1   
    22   20   23 1   
    23   20   29 1   
    24   21   22 2   
    25   21   41 1   
    26   23   24 1   
    27   23   30 1   
    28   23   31 1   
    29   24   25 1   
    30   24   32 1   
    31   24   33 1   
    32   25   26 1   
    33   25   34 1   
    34   25   35 1   
    35   26   27 1   
    36   26   36 1   
    37   26   37 1   
    38   27   38 1   
    39   27   39 1   
    40   27   40 1   
    41   41   42 1   
    42   41   49 1   
    43   42   43 1   
    44   42   45 1   
    45   42   50 1   
    46   43   44 2   
    47   43   53 1   
    48   45   46 1   
    49   45   51 1   
    50   45   52 1   
    51   46   47 1   
    52   46   48 1   
    53   53   54 1   
    54   53   57 1   
    55   54   55 1   
    56   54   58 1   
    57   54   59 1   
    58   55   56 2   
    59   55   60 1   
    60   60   61 1   
    61   60   68 1   
    62   61   62 1   
    63   61   64 1   
    64   61   69 1   
    65   62   63 2   
    66   62   72 1   
    67   64   65 1   
    68   64   70 1   
    69   64   71 1   
    70   65   66 1   
    71   65   67 1   
    72   72   73 1   
    73   72   76 1   
    74   73   74 1   
    75   73   77 1   
    76   73   78 1   
    77   74   75 2   
    78   74   79 1   
    79   79   80 1   
    80   79   86 1   
    81   80   81 1   
    82   80   83 1   
    83   80   87 1   
    84   81   82 2   
    85   81   93 1   
    86   83   84 1   
    87   83   85 1   
    88   83   88 1   
    89   84   90 1   
    90   84   91 1   
    91   84   92 1   
    92   85   89 1   
    93   93   94 1   
    94   93  101 1   
    95   94   95 1   
    96   94   97 1   
    97   94  102 1   
    98   95   96 2   
    99   95  112 1   
   100   97   98 1   
   101   97   99 1   
   102   97  103 1   
   103   98  100 1   
   104   98  104 1   
   105   98  105 1   
   106   99  106 1   
   107   99  107 1   
   108   99  108 1   
   109  100  109 1   
   110  100  110 1   
   111  100  111 1   
   112  112  113 1   
   113  112  119 1   
   114  113  114 1   
   115  113  116 1   
   116  113  120 1   
   117  114  115 2   
   118  114  126 1   
   119  116  117 1   
   120  116  118 1   
   121  116  121 1   
   122  117  123 1   
   123  117  124 1   
   124  117  125 1   
   125  118  122 1   
   126  126  127 1   
   127  126  133 1   
   128  127  128 1   
   129  127  130 1   
   130  127  134 1   
   131  128  129 2   
   132  128  140 1   
   133  130  131 1   
   134  130  132 1   
   135  130  135 1   
   136  131  137 1   
   137  131  138 1   
   138  131  139 1   
   139  132  136 1   
   140  140  141 1   
   141  140  149 1   
   142  141  142 1   
   143  141  144 1   
   144  141  150 1   
   145  142  143 2   
   146  142  162 1   
   147  144  145 1   
   148  144  151 1   
   149  144  152 1   
   150  145  146 1   
   151  145  153 1   
   152  145  154 1   
   153  146  147 1   
   154  146  155 1   
   155  146  156 1   
   156  147  148 1   
   157  147  157 1   
   158  147  158 1   
   159  148  159 1   
   160  148  160 1   
   161  148  161 1   
   162  162  163 1   
   163  162  171 1   
   164  163  164 1   
   165  163  166 1   
   166  163  172 1   
   167  164  165 2   
   168  164  177 1   
   169  166  167 1   
   170  166  173 1   
   171  166  174 1   
   172  167  168 1   
   173  167  175 1   
   174  167  176 1   
   175  168  169 1   
   176  168  170 1   
   177  177  178 1   
   178  177  182 1   
   179  178  179 1   
   180  178  180 1   
   181  178  181 1   
   182  184  185 1   
   183  184  186 1   
   184  187  188 1   
   185  187  189 1   
   186  190  191 1   
   187  190  192 1   
@<TRIPOS>SUBSTRUCTURE
     1 MOL         1 TEMP              0 ****  ****    0 ROOT
