@<TRIPOS>MOLECULE
MOL
  192   187     1     0     0
SMALL
resp


@<TRIPOS>ATOM
      1 C1         -3.9920    6.6650    2.6780 c3        1 MOL     -0.382849
      2 C2         -3.9670    5.2400    2.2600 c         1 MOL      0.679692
      3 O1         -3.7850    4.3450    3.0840 o         1 MOL     -0.607784
      4 H1         -2.9850    7.0780    2.6190 hc        1 MOL      0.101738
      5 H2         -4.6540    7.2270    2.0180 hc        1 MOL      0.101738
      6 H3         -4.3550    6.7360    3.7040 hc        1 MOL      0.101738
      7 N1         -4.0630    4.9280    0.9750 n         1 MOL     -0.394404
      8 C3         -4.1010    3.5890    0.3510 c3        1 MOL     -0.013783
      9 C4         -2.6970    3.1030   -0.0830 c         1 MOL      0.532222
     10 O2         -2.5450    1.9940   -0.5920 o         1 MOL     -0.510713
     11 C5         -5.1870    3.5720   -0.7280 c3        1 MOL     -0.420659
     12 C6         -5.0520    4.6710   -1.7470 c         1 MOL      0.762817
     13 O3         -4.8530    4.3650   -2.9180 o         1 MOL     -0.734358
     14 O4         -5.2030    5.8880   -1.4040 o         1 MOL     -0.734358
     15 H4         -4.1440    5.6830    0.3090 hn        1 MOL      0.241528
     16 H5         -4.5020    2.8880    1.0730 h1        1 MOL      0.081986
     17 H6         -6.1560    3.5870   -0.2310 hc        1 MOL      0.136455
     18 H7         -5.1560    2.6220   -1.2500 hc        1 MOL      0.136455
     19 N2         -1.6640    3.9270    0.0320 n         1 MOL     -0.408615
     20 C7         -0.2560    3.7120   -0.2640 c3        1 MOL      0.274995
     21 C8          0.5010    3.3850    1.0300 c         1 MOL      0.476916
     22 O5          0.5600    4.1800    1.8960 o         1 MOL     -0.563813
     23 C9          0.4210    4.8310   -1.0610 c3        1 MOL     -0.189625
     24 C10        -0.1510    4.7760   -2.4380 c3        1 MOL     -0.013426
     25 C11         0.3350    5.9540   -3.3160 c3        1 MOL      0.072103
     26 C12         0.0530    6.0720   -4.7470 c3        1 MOL      0.097306
     27 N3         -1.3920    5.9460   -5.0340 n4        1 MOL     -0.399865
     28 H8         -1.8990    4.8310    0.4130 hn        1 MOL      0.205941
     29 H9         -0.2700    2.8270   -0.8920 h1        1 MOL      0.014259
     30 H10         1.5090    4.7480   -1.0710 hc        1 MOL      0.075923
     31 H11         0.1570    5.7920   -0.6240 hc        1 MOL      0.075923
     32 H12        -1.2400    4.7540   -2.4660 hc        1 MOL      0.023459
     33 H13         0.1030    3.8640   -2.9870 hc        1 MOL      0.023459
     34 H14         1.4270    5.9930   -3.1830 hc        1 MOL      0.001166
     35 H15        -0.0080    6.8850   -2.8540 hc        1 MOL      0.001166
     36 H16         0.6570    5.4710   -5.4290 hx        1 MOL      0.060336
     37 H17         0.3070    7.0980   -5.0170 hx        1 MOL      0.060336
     38 H18        -1.9090    6.3960   -4.2880 hn        1 MOL      0.335175
     39 H19        -1.5540    6.4060   -5.9170 hn        1 MOL      0.335175
     40 H20        -1.6760    4.9790   -5.1300 hn        1 MOL      0.335175
     41 N4          1.2730    2.3280    1.1610 n         1 MOL     -0.341679
     42 C13         1.6930    1.2450    0.2390 c3        1 MOL      0.145598
     43 C14         2.1460    1.7560   -1.1600 c         1 MOL      0.278631
     44 O6          1.4760    1.5960   -2.1350 o         1 MOL     -0.508353
     45 C15         0.6370    0.1130    0.0800 c3        1 MOL      0.018757
     46 C16         0.2730   -0.4370    1.4170 c         1 MOL      0.579157
     47 O7         -0.9500   -0.4250    1.7480 o         1 MOL     -0.730728
     48 O8          1.1570   -0.8480    2.1910 o         1 MOL     -0.730728
     49 H21         1.6730    2.1320    2.0620 hn        1 MOL      0.276861
     50 H22         2.5840    0.7630    0.6440 h1        1 MOL     -0.014499
     51 H23         1.1400   -0.6910   -0.4580 hc        1 MOL      0.060135
     52 H24        -0.2580    0.4310   -0.4430 hc        1 MOL      0.060135
     53 N5          3.2280    2.4880   -1.2920 n         1 MOL     -0.215543
     54 C17         4.2590    2.9020   -0.2750 c3        1 MOL      0.079046
     55 C18         5.3370    3.8660   -0.8150 c         1 MOL      0.521883
     56 O9          5.1900    4.3810   -1.9360 o         1 MOL     -0.541936
     57 H25         3.3650    2.9850   -2.1660 hn        1 MOL      0.226606
     58 H26         4.8500    2.0420    0.0590 h1        1 MOL      0.000687
     59 H27         3.7180    3.3460    0.5550 h1        1 MOL      0.000687
     60 N6          6.4950    4.0680   -0.1230 n         1 MOL     -0.537055
     61 C19         6.8770    3.4990    1.1260 c3        1 MOL      0.331613
     62 C20         7.5820    2.1590    0.8290 c         1 MOL      0.640697
     63 O10         8.1010    1.9280   -0.2680 o         1 MOL     -0.514098
     64 C21         7.7180    4.4330    1.9340 c3        1 MOL     -0.389114
     65 C22         9.0460    4.8640    1.3720 c         1 MOL      0.786696
     66 O11         9.1520    5.2730    0.2390 o         1 MOL     -0.679604
     67 O12        10.0560    4.8160    2.1110 o         1 MOL     -0.679604
     68 H28         7.1330    4.7610   -0.4860 hn        1 MOL      0.314145
     69 H29         5.9820    3.2060    1.6590 h1        1 MOL     -0.083306
     70 H30         7.8190    3.9920    2.9260 hc        1 MOL      0.066015
     71 H31         7.1070    5.3410    1.9860 hc        1 MOL      0.066015
     72 N7          7.7240    1.3490    1.8690 n         1 MOL     -0.538516
     73 C23         8.5320    0.1930    1.8760 c3        1 MOL     -0.005921
     74 C24         7.7360   -1.1500    1.4740 c         1 MOL      0.484653
     75 O13         8.1180   -2.2500    1.9280 o         1 MOL     -0.538736
     76 H32         7.4130    1.7220    2.7620 hn        1 MOL      0.308571
     77 H33         8.9270    0.0200    2.8740 h1        1 MOL      0.095811
     78 H34         9.4430    0.3420    1.3010 h1        1 MOL      0.095811
     79 N8          6.5160   -0.9480    0.8680 n         1 MOL     -0.480765
     80 C25         5.4430   -1.9880    0.7240 c3        1 MOL      0.254811
     81 C26         4.7520   -1.9650   -0.5840 c         1 MOL      0.471309
     82 O14         4.6260   -0.8780   -1.1490 o         1 MOL     -0.481670
     83 C27         4.2870   -1.7580    1.7830 c3        1 MOL      0.282604
     84 C28         4.7720   -1.9280    3.1710 c3        1 MOL     -0.439034
     85 O15         3.1470   -2.5760    1.6180 oh        1 MOL     -0.601955
     86 H35         6.4050   -0.0260    0.4760 hn        1 MOL      0.210620
     87 H36         5.8760   -2.9740    0.8480 h1        1 MOL      0.052261
     88 H37         3.9480   -0.7260    1.7380 h1        1 MOL      0.025077
     89 H38         2.4210   -2.0330    1.9320 ho        1 MOL      0.324410
     90 H39         5.2220   -2.9090    3.3050 hc        1 MOL      0.108649
     91 H40         5.6200   -1.2730    3.3670 hc        1 MOL      0.108649
     92 H41         3.9280   -1.6530    3.8120 hc        1 MOL      0.108649
     93 N9          4.2480   -3.1020   -1.1030 n         1 MOL     -0.450696
     94 C29         3.8410   -3.3050   -2.5250 c3        1 MOL     -0.014848
     95 C30         2.4300   -3.9240   -2.6210 c         1 MOL      0.527063
     96 O16         1.5570   -3.4690   -3.3990 o         1 MOL     -0.549559
     97 C31         4.8570   -4.0920   -3.3100 c3        1 MOL      0.057233
     98 C32         5.4330   -5.3100   -2.5060 c3        1 MOL     -0.194686
     99 C33         6.0730   -3.2280   -3.7600 c3        1 MOL     -0.157007
    100 C34         6.1920   -6.2460   -3.4260 c3        1 MOL     -0.138020
    101 H42         4.4810   -3.9540   -0.6100 hn        1 MOL      0.227265
    102 H43         3.7980   -2.3560   -3.0650 h1        1 MOL      0.116462
    103 H44         4.3330   -4.5660   -4.1430 hc        1 MOL      0.044290
    104 H45         4.6090   -5.8300   -2.0170 hc        1 MOL      0.069233
    105 H46         6.0520   -4.9410   -1.6880 hc        1 MOL      0.069233
    106 H47         6.6630   -3.8690   -4.4130 hc        1 MOL      0.062251
    107 H48         5.7460   -2.4330   -4.4260 hc        1 MOL      0.062251
    108 H49         6.7110   -2.8810   -2.9410 hc        1 MOL      0.062251
    109 H50         5.5760   -6.3390   -4.3280 hc        1 MOL      0.050168
    110 H51         7.1870   -5.9080   -3.6890 hc        1 MOL      0.050168
    111 H52         6.3820   -7.2610   -3.0690 hc        1 MOL      0.050168
    112 N10         2.0850   -5.0060   -1.8880 n         1 MOL     -0.313334
    113 C35         0.7180   -5.5420   -1.8260 c3        1 MOL     -0.230893
    114 C36        -0.2190   -4.4380   -1.1720 c         1 MOL      0.651689
    115 O17         0.1980   -3.7450   -0.2910 o         1 MOL     -0.609805
    116 C37         0.5460   -6.8280   -1.0380 c3        1 MOL      0.319160
    117 C38         1.1340   -6.8090    0.4330 c3        1 MOL     -0.297159
    118 O18         1.1620   -7.8580   -1.8310 oh        1 MOL     -0.659046
    119 H53         2.7810   -5.4490   -1.3080 hn        1 MOL      0.358147
    120 H54         0.3240   -5.6930   -2.8370 h1        1 MOL      0.160695
    121 H55        -0.5000   -7.1140   -0.9230 h1        1 MOL      0.029207
    122 H56         0.8220   -8.7450   -1.7210 ho        1 MOL      0.422852
    123 H57         1.0990   -5.8050    0.8310 hc        1 MOL      0.073848
    124 H58         0.6190   -7.5860    1.0070 hc        1 MOL      0.073848
    125 H59         2.1900   -6.9860    0.2100 hc        1 MOL      0.073848
    126 N11        -1.3470   -4.0930   -1.8490 n         1 MOL     -0.525550
    127 C39        -2.2970   -2.9440   -1.6810 c3        1 MOL     -0.023425
    128 C40        -3.7500   -3.3380   -1.6190 c         1 MOL      0.628387
    129 O19        -4.1560   -4.4410   -2.0780 o         1 MOL     -0.539985
    130 C41        -2.1410   -1.8800   -2.7750 c3        1 MOL      0.734430
    131 C42        -2.4400   -2.2990   -4.1470 c3        1 MOL     -0.425947
    132 O20        -0.8530   -1.4090   -2.7920 oh        1 MOL     -0.707746
    133 H60        -1.6790   -4.6620   -2.6210 hn        1 MOL      0.258609
    134 H61        -2.0550   -2.3180   -0.8170 h1        1 MOL      0.033301
    135 H62        -2.8180   -1.0680   -2.5180 h1        1 MOL     -0.082112
    136 H63        -0.2970   -1.9970   -2.2800 ho        1 MOL      0.442600
    137 H64        -1.9810   -3.2740   -4.2540 hc        1 MOL      0.094493
    138 H65        -3.5190   -2.4080   -4.2410 hc        1 MOL      0.094493
    139 H66        -2.0430   -1.6400   -4.9190 hc        1 MOL      0.094493
    140 N12        -4.5850   -2.4570   -1.0020 n         1 MOL     -0.624110
    141 C43        -6.0440   -2.5010   -1.1340 c3        1 MOL      0.026342
    142 C44        -6.7000   -2.1660    0.1870 c         1 MOL      0.604290
    143 O21        -7.9160   -2.4170    0.2990 o         1 MOL     -0.580395
    144 C45        -6.5430   -1.6520   -2.2930 c3        1 MOL     -0.448034
    145 C46        -6.1290   -0.1070   -2.2630 c3        1 MOL     -0.021210
    146 C47        -6.2290    0.4990   -3.6740 c3        1 MOL      0.208328
    147 C48        -7.7060    0.5000   -4.0220 c3        1 MOL      0.007372
    148 N13        -7.9470    1.4060   -5.1760 n4        1 MOL     -0.265140
    149 H67        -4.1460   -1.5990   -0.6960 hn        1 MOL      0.323702
    150 H68        -6.3310   -3.5450   -1.3000 h1        1 MOL      0.141568
    151 H69        -7.6190   -1.7860   -2.1970 hc        1 MOL      0.139109
    152 H70        -6.2730   -2.2060   -3.1960 hc        1 MOL      0.139109
    153 H71        -5.1300    0.1170   -1.9040 hc        1 MOL      0.029557
    154 H72        -6.7820    0.3630   -1.5270 hc        1 MOL      0.029557
    155 H73        -5.5850   -0.0080   -4.3950 hc        1 MOL     -0.032924
    156 H74        -5.8810    1.5180   -3.4720 hc        1 MOL     -0.032924
    157 H75        -8.3950    0.8830   -3.2770 hx        1 MOL      0.087245
    158 H76        -7.9430   -0.5220   -4.3040 hx        1 MOL      0.087245
    159 H77        -7.3350    1.3140   -5.9650 hn        1 MOL      0.262721
    160 H78        -8.8960    1.4350   -5.5210 hn        1 MOL      0.262721
    161 H79        -7.8620    2.3970   -4.9870 hn        1 MOL      0.262721
    162 N14        -5.9770   -1.7110    1.2250 n         1 MOL     -0.312930
    163 C49        -6.4550   -1.2790    2.5200 c3        1 MOL     -0.143009
    164 C50        -7.0470    0.0670    2.3870 c         1 MOL      0.469713
    165 O22        -6.3260    1.0270    2.2730 o         1 MOL     -0.413125
    166 C51        -5.2770   -1.4260    3.5620 c3        1 MOL     -0.315629
    167 C52        -4.9840   -2.9560    3.6900 c3        1 MOL     -0.009986
    168 C53        -3.7320   -3.3280    4.5010 c         1 MOL      0.534186
    169 O23        -2.7330   -2.6510    4.2750 o         1 MOL     -0.682313
    170 O24        -3.8250   -4.2500    5.3290 o         1 MOL     -0.682313
    171 H80        -5.0310   -1.4860    0.9490 hn        1 MOL      0.282091
    172 H81        -7.2570   -1.9580    2.8240 h1        1 MOL      0.094841
    173 H82        -5.5590   -1.0200    4.5300 hc        1 MOL      0.124879
    174 H83        -4.3820   -0.8830    3.3050 hc        1 MOL      0.124879
    175 H84        -5.0480   -3.4180    2.6990 hc        1 MOL      0.054803
    176 H85        -5.7960   -3.3610    4.2910 hc        1 MOL      0.054803
    177 N15        -8.4110    0.2580    2.5470 n         1 MOL     -0.345674
    178 C54        -9.0750    1.5720    2.5910 c3        1 MOL     -0.016906
    179 H86       -10.1030    1.4710    2.2420 h1        1 MOL      0.053236
    180 H87        -9.0730    1.9460    3.6140 h1        1 MOL      0.053236
    181 H88        -8.5400    2.2700    1.9470 h1        1 MOL      0.053236
    182 H89        -8.9630   -0.5830    2.5540 hn        1 MOL      0.268857
    183 Ca1        -0.4010   -1.8300    4.1310 Ca        1 MOL      1.767507
    184 O25        -1.5790   -1.1930    6.5320 oh        1 MOL     -0.917891
    185 H90        -2.4140   -0.7170    6.5220 ho        1 MOL      0.459465
    186 H91        -1.6210   -1.7510    7.3060 ho        1 MOL      0.459465
    187 O26        -0.2290   -3.7650    2.2640 oh        1 MOL     -0.917891
    188 H92        -0.7100   -4.5970    2.1510 ho        1 MOL      0.459465
    189 H93         0.1470   -3.5990    1.3920 ho        1 MOL      0.459465
    190 O27        -0.9640    0.8300    4.3710 oh        1 MOL     -0.917891
    191 H94        -0.6780    1.7410    4.3170 ho        1 MOL      0.459465
    192 H95        -1.8920    0.8540    4.1330 ho        1 MOL      0.459465
@<TRIPOS>BOND
     1    1    2 1   
     2    1    4 1   
     3    1    5 1   
     4    1    6 1   
     5    2    3 2   
     6    2    7 1   
     7    7    8 1   
     8    7   15 1   
     9    8    9 1   
    10    8   11 1   
    11    8   16 1   
    12    9   10 2   
    13    9   19 1   
    14   11   12 1   
    15   11   17 1   
    16   11   18 1   
    17   12   13 1   
    18   12   14 1   
    19   19   20 1   
    20   19   28 1   
    21   20   21 1   
    22   20   23 1   
    23   20   29 1   
    24   21   22 2   
    25   21   41 1   
    26   23   24 1   
    27   23   30 1   
    28   23   31 1   
    29   24   25 1   
    30   24   32 1   
    31   24   33 1   
    32   25   26 1   
    33   25   34 1   
    34   25   35 1   
    35   26   27 1   
    36   26   36 1   
    37   26   37 1   
    38   27   38 1   
    39   27   39 1   
    40   27   40 1   
    41   41   42 1   
    42   41   49 1   
    43   42   43 1   
    44   42   45 1   
    45   42   50 1   
    46   43   44 2   
    47   43   53 1   
    48   45   46 1   
    49   45   51 1   
    50   45   52 1   
    51   46   47 1   
    52   46   48 1   
    53   53   54 1   
    54   53   57 1   
    55   54   55 1   
    56   54   58 1   
    57   54   59 1   
    58   55   56 2   
    59   55   60 1   
    60   60   61 1   
    61   60   68 1   
    62   61   62 1   
    63   61   64 1   
    64   61   69 1   
    65   62   63 2   
    66   62   72 1   
    67   64   65 1   
    68   64   70 1   
    69   64   71 1   
    70   65   66 1   
    71   65   67 1   
    72   72   73 1   
    73   72   76 1   
    74   73   74 1   
    75   73   77 1   
    76   73   78 1   
    77   74   75 2   
    78   74   79 1   
    79   79   80 1   
    80   79   86 1   
    81   80   81 1   
    82   80   83 1   
    83   80   87 1   
    84   81   82 2   
    85   81   93 1   
    86   83   84 1   
    87   83   85 1   
    88   83   88 1   
    89   84   90 1   
    90   84   91 1   
    91   84   92 1   
    92   85   89 1   
    93   93   94 1   
    94   93  101 1   
    95   94   95 1   
    96   94   97 1   
    97   94  102 1   
    98   95   96 2   
    99   95  112 1   
   100   97   98 1   
   101   97   99 1   
   102   97  103 1   
   103   98  100 1   
   104   98  104 1   
   105   98  105 1   
   106   99  106 1   
   107   99  107 1   
   108   99  108 1   
   109  100  109 1   
   110  100  110 1   
   111  100  111 1   
   112  112  113 1   
   113  112  119 1   
   114  113  114 1   
   115  113  116 1   
   116  113  120 1   
   117  114  115 2   
   118  114  126 1   
   119  116  117 1   
   120  116  118 1   
   121  116  121 1   
   122  117  123 1   
   123  117  124 1   
   124  117  125 1   
   125  118  122 1   
   126  126  127 1   
   127  126  133 1   
   128  127  128 1   
   129  127  130 1   
   130  127  134 1   
   131  128  129 2   
   132  128  140 1   
   133  130  131 1   
   134  130  132 1   
   135  130  135 1   
   136  131  137 1   
   137  131  138 1   
   138  131  139 1   
   139  132  136 1   
   140  140  141 1   
   141  140  149 1   
   142  141  142 1   
   143  141  144 1   
   144  141  150 1   
   145  142  143 2   
   146  142  162 1   
   147  144  145 1   
   148  144  151 1   
   149  144  152 1   
   150  145  146 1   
   151  145  153 1   
   152  145  154 1   
   153  146  147 1   
   154  146  155 1   
   155  146  156 1   
   156  147  148 1   
   157  147  157 1   
   158  147  158 1   
   159  148  159 1   
   160  148  160 1   
   161  148  161 1   
   162  162  163 1   
   163  162  171 1   
   164  163  164 1   
   165  163  166 1   
   166  163  172 1   
   167  164  165 2   
   168  164  177 1   
   169  166  167 1   
   170  166  173 1   
   171  166  174 1   
   172  167  168 1   
   173  167  175 1   
   174  167  176 1   
   175  168  169 1   
   176  168  170 1   
   177  177  178 1   
   178  177  182 1   
   179  178  179 1   
   180  178  180 1   
   181  178  181 1   
   182  184  185 1   
   183  184  186 1   
   184  187  188 1   
   185  187  189 1   
   186  190  191 1   
   187  190  192 1   
@<TRIPOS>SUBSTRUCTURE
     1 MOL         1 TEMP              0 ****  ****    0 ROOT
