@<TRIPOS>MOLECULE
MOL
  201   193     1     0     0
SMALL
resp


@<TRIPOS>ATOM
      1 C1          9.3640    6.6250   -4.2530 c3        1 MOL     -0.336891
      2 C2          8.9550    5.9720   -2.8810 c         1 MOL      0.644829
      3 O1          9.4430    4.8950   -2.5180 o         1 MOL     -0.625193
      4 H1          9.6030    7.6770   -4.0970 hc        1 MOL      0.085789
      5 H2         10.2370    6.1100   -4.6550 hc        1 MOL      0.085789
      6 H3          8.5360    6.5410   -4.9570 hc        1 MOL      0.085789
      7 N1          8.2180    6.6450   -2.0570 n         1 MOL     -0.420255
      8 C3          7.5880    6.0690   -0.8300 c3        1 MOL     -0.035471
      9 C4          6.6150    4.9630   -1.0970 c         1 MOL      0.728585
     10 O2          5.9650    4.9900   -2.1470 o         1 MOL     -0.538358
     11 C5          6.8590    7.2250   -0.0640 c3        1 MOL     -0.041956
     12 C6          5.8880    8.0170   -0.8860 c         1 MOL      0.670344
     13 O3          4.6580    7.9810   -0.5710 o         1 MOL     -0.634084
     14 O4          6.3200    8.7390   -1.8220 o         1 MOL     -0.634084
     15 H4          7.7510    7.4720   -2.4100 hn        1 MOL      0.239691
     16 H5          8.3710    5.7120   -0.1590 h1        1 MOL      0.060066
     17 H6          7.6080    7.9370    0.2780 hc        1 MOL      0.002168
     18 H7          6.3380    6.8840    0.8310 hc        1 MOL      0.002168
     19 N2          6.4820    4.0200   -0.1310 n         1 MOL     -0.760884
     20 C7          5.5140    2.8800   -0.2450 c3        1 MOL      0.453753
     21 C8          4.0890    3.1760    0.1700 c         1 MOL      0.492581
     22 O5          3.8770    4.1260    0.9260 o         1 MOL     -0.509413
     23 C9          6.1810    1.7080    0.4800 c3        1 MOL     -0.233545
     24 C10         5.9280    0.3460   -0.1550 c3        1 MOL      0.302770
     25 C11         6.5840   -0.8050    0.6470 c3        1 MOL     -0.019759
     26 C12         6.3610   -2.1200   -0.0610 c3        1 MOL     -0.306844
     27 N3          4.9880   -2.5740    0.0260 n4        1 MOL      0.000647
     28 H8          7.0790    4.2170    0.6550 hn        1 MOL      0.328294
     29 H9          5.4080    2.6100   -1.3030 h1        1 MOL     -0.042664
     30 H10         5.6920    1.6840    1.4520 hc        1 MOL      0.045040
     31 H11         7.2270    1.9410    0.6610 hc        1 MOL      0.045040
     32 H12         6.2520    0.3450   -1.1950 hc        1 MOL     -0.064489
     33 H13         4.8540    0.1330   -0.1500 hc        1 MOL     -0.064489
     34 H14         6.1350   -0.7390    1.6430 hc        1 MOL      0.014001
     35 H15         7.6600   -0.6050    0.6460 hc        1 MOL      0.014001
     36 H16         6.9940   -2.8360    0.4630 hx        1 MOL      0.147247
     37 H17         6.7070   -1.9840   -1.0830 hx        1 MOL      0.147247
     38 H18         4.7810   -2.9170    0.9520 hn        1 MOL      0.199875
     39 H19         4.3740   -1.8200   -0.2120 hn        1 MOL      0.199875
     40 H20         4.8500   -3.3270   -0.6380 hn        1 MOL      0.199875
     41 N4          3.1110    2.4490   -0.3350 n         1 MOL     -0.614688
     42 C13         1.6790    2.3690    0.0530 c3        1 MOL      0.331768
     43 C14         1.1010    1.0880   -0.4690 c         1 MOL      0.425026
     44 O6          0.7880    0.9960   -1.6450 o         1 MOL     -0.517920
     45 C15         0.9400    3.5930   -0.4090 c3        1 MOL     -0.163299
     46 C16        -0.2980    3.9640    0.3440 c         1 MOL      0.697662
     47 O7         -1.4010    3.3790    0.3190 o         1 MOL     -0.753244
     48 O8         -0.2680    4.9750    1.0850 o         1 MOL     -0.753244
     49 H21         3.4120    1.7280   -0.9780 hn        1 MOL      0.307053
     50 H22         1.6710    2.4490    1.1350 h1        1 MOL      0.062807
     51 H23         0.7400    3.5060   -1.4800 hc        1 MOL      0.080490
     52 H24         1.5980    4.4590   -0.4040 hc        1 MOL      0.080490
     53 N5          0.9030    0.0230    0.2910 n         1 MOL     -0.445201
     54 C17         1.0850   -0.1390    1.7170 c3        1 MOL     -0.279137
     55 C18         2.4070   -0.7620    2.1110 c         1 MOL      0.504805
     56 O9          3.3280   -0.8430    1.3110 o         1 MOL     -0.487405
     57 H25         0.4600   -0.7870   -0.1300 hn        1 MOL      0.368216
     58 H26         0.2630   -0.6700    2.2000 h1        1 MOL      0.132366
     59 H27         1.0650    0.8550    2.1570 h1        1 MOL      0.132366
     60 N6          2.4980   -1.2960    3.2920 n         1 MOL     -0.267323
     61 C19         3.6570   -1.9760    3.8090 c3        1 MOL     -0.151678
     62 C20         3.9140   -3.4300    3.3350 c         1 MOL      0.560428
     63 O10         4.9690   -3.6060    2.7480 o         1 MOL     -0.524329
     64 C21         3.7560   -1.8360    5.3380 c3        1 MOL     -0.392098
     65 C22         2.4550   -2.1720    5.9710 c         1 MOL      0.834477
     66 O11         2.1140   -3.3370    6.2840 o         1 MOL     -0.721182
     67 O12         1.6640   -1.2450    6.2510 o         1 MOL     -0.721182
     68 H28         1.7720   -1.0150    3.9300 hn        1 MOL      0.213984
     69 H29         4.5700   -1.4840    3.4820 h1        1 MOL      0.195513
     70 H30         3.9550   -0.8100    5.6370 hc        1 MOL      0.103531
     71 H31         4.5990   -2.4560    5.6520 hc        1 MOL      0.103531
     72 N7          3.0640   -4.4360    3.6000 n         1 MOL     -0.353867
     73 C23         3.0950   -5.7390    2.9590 c3        1 MOL      0.058641
     74 C24         3.0150   -5.6750    1.4200 c         1 MOL      0.220379
     75 O13         2.3400   -4.7950    0.8690 o         1 MOL     -0.282540
     76 H32         2.2740   -4.2770    4.2090 hn        1 MOL      0.253724
     77 H33         2.3120   -6.4190    3.2900 h1        1 MOL      0.078702
     78 H34         3.9780   -6.2820    3.3000 h1        1 MOL      0.078702
     79 N8          3.7510   -6.5590    0.7060 n         1 MOL     -0.277356
     80 C25         3.6780   -6.8370   -0.7680 c3        1 MOL     -0.078824
     81 C26         3.6360   -5.5880   -1.6750 c         1 MOL      0.300232
     82 O14         4.4820   -4.7000   -1.6610 o         1 MOL     -0.425119
     83 C27         4.8170   -7.7620   -1.2340 c3        1 MOL      0.358279
     84 C28         6.2050   -7.4650   -0.5990 c3        1 MOL     -0.119347
     85 O15         4.5970   -9.1270   -0.8260 oh        1 MOL     -0.630816
     86 H35         3.9910   -7.3700    1.2590 hn        1 MOL      0.268794
     87 H36         2.7400   -7.3570   -0.9230 h1        1 MOL      0.069004
     88 H37         4.9040   -7.7470   -2.3150 h1        1 MOL      0.017434
     89 H38         3.7910   -9.5660   -1.1180 ho        1 MOL      0.386892
     90 H39         6.4790   -6.4490   -0.8600 hc        1 MOL      0.044274
     91 H40         6.2190   -7.5180    0.4910 hc        1 MOL      0.044274
     92 H41         6.8970   -8.1670   -1.0750 hc        1 MOL      0.044274
     93 N9          2.5200   -5.4200   -2.3460 n         1 MOL     -0.407377
     94 C29         2.0980   -4.1000   -2.8680 c3        1 MOL      0.026818
     95 C30         0.9340   -3.4760   -1.9110 c         1 MOL      0.476216
     96 O16         0.9730   -2.2730   -1.6190 o         1 MOL     -0.520657
     97 C31         1.6020   -4.1080   -4.3520 c3        1 MOL      0.145716
     98 C32         2.6230   -4.5080   -5.4150 c3        1 MOL      0.104595
     99 C33         1.1510   -2.7300   -4.8250 c3        1 MOL     -0.457071
    100 C34         3.3920   -5.7740   -5.1040 c3        1 MOL     -0.291260
    101 H42         1.9520   -6.2650   -2.4040 hn        1 MOL      0.314180
    102 H43         2.8940   -3.3810   -3.0160 h1        1 MOL      0.115629
    103 H44         0.7870   -4.8200   -4.4810 hc        1 MOL      0.000449
    104 H45         3.3850   -3.7560   -5.6360 hc        1 MOL      0.011972
    105 H46         2.0430   -4.6890   -6.3130 hc        1 MOL      0.011972
    106 H47         0.9050   -2.6390   -5.8880 hc        1 MOL      0.128038
    107 H48         0.2150   -2.5920   -4.2770 hc        1 MOL      0.128038
    108 H49         1.8790   -2.0020   -4.4630 hc        1 MOL      0.128038
    109 H50         3.8760   -6.1110   -6.0280 hc        1 MOL      0.068845
    110 H51         4.1050   -5.4080   -4.3680 hc        1 MOL      0.068845
    111 H52         2.6370   -6.4690   -4.7520 hc        1 MOL      0.068845
    112 N10         0.0330   -4.2790   -1.3690 n         1 MOL     -0.418413
    113 C35        -1.0560   -3.8070   -0.4820 c3        1 MOL     -0.000627
    114 C36        -2.3310   -4.4790   -0.9130 c         1 MOL      0.631802
    115 O17        -2.3100   -5.5320   -1.5360 o         1 MOL     -0.537416
    116 C37        -0.9290   -4.0420    1.0420 c3        1 MOL      0.409278
    117 C38        -0.7000   -5.5610    1.3350 c3        1 MOL     -0.389258
    118 O18         0.1530   -3.2910    1.5770 oh        1 MOL     -0.629731
    119 H53         0.0650   -5.2470   -1.6480 hn        1 MOL      0.224319
    120 H54        -1.1470   -2.7250   -0.5750 h1        1 MOL      0.080142
    121 H55        -1.8280   -3.6900    1.5540 h1        1 MOL      0.044977
    122 H56         0.9520   -3.6960    1.2170 ho        1 MOL      0.343238
    123 H57        -0.0350   -6.1210    0.6790 hc        1 MOL      0.095099
    124 H58        -0.3540   -5.8350    2.3360 hc        1 MOL      0.095099
    125 H59        -1.6940   -5.9900    1.1980 hc        1 MOL      0.095099
    126 N11        -3.4930   -3.9720   -0.4970 n         1 MOL     -0.614823
    127 C39        -4.8290   -4.6210   -0.7110 c3        1 MOL      0.054946
    128 C40        -5.8210   -3.6030   -1.2310 c         1 MOL      0.614800
    129 O19        -6.5300   -3.8340   -2.1940 o         1 MOL     -0.540066
    130 C41        -5.3260   -5.2680    0.6330 c3        1 MOL      0.250183
    131 C42        -6.5210   -6.0890    0.3870 c3        1 MOL     -0.386606
    132 O20        -5.4720   -4.2080    1.5360 oh        1 MOL     -0.573421
    133 H60        -3.4500   -3.1700    0.1060 hn        1 MOL      0.265988
    134 H61        -4.7390   -5.3600   -1.5020 h1        1 MOL      0.097992
    135 H62        -4.5910   -5.9900    0.9980 h1        1 MOL      0.043433
    136 H63        -4.7640   -4.2750    2.1780 ho        1 MOL      0.381083
    137 H64        -7.0080   -6.5740    1.2330 hc        1 MOL      0.110457
    138 H65        -7.3880   -5.6200   -0.0810 hc        1 MOL      0.110457
    139 H66        -6.2460   -6.8390   -0.3450 hc        1 MOL      0.110457
    140 N12        -5.9060   -2.3450   -0.5970 n         1 MOL     -0.431638
    141 C43        -6.7790   -1.1970   -1.0080 c3        1 MOL     -0.207451
    142 C44        -6.2430    0.0890   -0.4030 c         1 MOL      0.572828
    143 O21        -5.9170    0.1090    0.7730 o         1 MOL     -0.518462
    144 C45        -8.2320   -1.5050   -0.4760 c3        1 MOL      0.010697
    145 C46        -9.3130   -0.3780   -0.4810 c3        1 MOL     -0.048967
    146 C47       -10.7560   -0.8340   -0.2600 c3        1 MOL      0.135297
    147 C48       -11.6420    0.3640    0.0850 c3        1 MOL      0.113738
    148 N13       -13.0730    0.1070   -0.0370 n4        1 MOL     -0.227710
    149 H67        -5.2760   -2.3200    0.1830 hn        1 MOL      0.269789
    150 H68        -6.7850   -1.2580   -2.0910 h1        1 MOL      0.148334
    151 H69        -8.1220   -1.8170    0.5690 hc        1 MOL      0.053685
    152 H70        -8.6640   -2.3620   -0.9930 hc        1 MOL      0.053685
    153 H71        -9.3110    0.0260   -1.4970 hc        1 MOL      0.013164
    154 H72        -9.0000    0.3760    0.2360 hc        1 MOL      0.013164
    155 H73       -10.8660   -1.4510    0.6240 hc        1 MOL     -0.028572
    156 H74       -11.1430   -1.4310   -1.0920 hc        1 MOL     -0.028572
    157 H75       -11.4240    1.1030   -0.6850 hx        1 MOL      0.038251
    158 H76       -11.4740    0.7790    1.0750 hx        1 MOL      0.038251
    159 H77       -13.6860    0.8680    0.2240 hn        1 MOL      0.237042
    160 H78       -13.2790   -0.0190   -1.0110 hn        1 MOL      0.237042
    161 H79       -13.2450   -0.7860    0.4150 hn        1 MOL      0.237042
    162 N14        -6.2530    1.1670   -1.1620 n         1 MOL     -0.415343
    163 C49        -5.9780    2.5480   -0.8370 c3        1 MOL      0.388440
    164 C50        -4.5670    2.7660   -0.4330 c         1 MOL      0.505305
    165 O22        -4.3860    3.3710    0.6630 o         1 MOL     -0.762127
    166 C51        -6.6020    3.5750   -1.8750 c3        1 MOL     -0.161373
    167 C52        -8.0880    3.7160   -1.6890 c3        1 MOL     -0.203590
    168 C53        -8.6830    4.1830   -2.9950 c         1 MOL      0.673865
    169 O23        -8.6580    5.4250   -3.2210 o         1 MOL     -0.707394
    170 O24        -9.2070    3.3700   -3.8160 o         1 MOL     -0.707394
    171 H80        -6.7130    1.0360   -2.0590 hn        1 MOL      0.246395
    172 H81        -6.5720    2.7020    0.0650 h1        1 MOL     -0.030850
    173 H82        -6.4440    3.1980   -2.8890 hc        1 MOL      0.086801
    174 H83        -6.1360    4.5570   -1.9020 hc        1 MOL      0.086801
    175 H84        -8.2280    4.4680   -0.9120 hc        1 MOL      0.021576
    176 H85        -8.6070    2.7910   -1.4540 hc        1 MOL      0.021576
    177 N15        -3.4840    2.3460   -1.0930 n         1 MOL     -0.448906
    178 C54        -3.3860    1.7550   -2.5200 c3        1 MOL     -0.100474
    179 H86        -2.7380    2.3850   -3.1300 h1        1 MOL      0.070880
    180 H87        -2.9710    0.7480   -2.4690 h1        1 MOL      0.070880
    181 H88        -4.3800    1.7170   -2.9660 h1        1 MOL      0.070880
    182 H89        -2.6180    2.4890   -0.5770 hn        1 MOL      0.379511
    183 Ca1        -2.7880    4.9530    2.0170 Ca        1 MOL      1.760229
    184 O25        -5.2810    6.4160    1.8660 oh        1 MOL     -0.824552
    185 H90        -5.6700    6.8270    2.6380 ho        1 MOL      0.417105
    186 H91        -5.7340    6.8180    1.1250 ho        1 MOL      0.417105
    187 O26        -2.1680    2.7550    3.3630 oh        1 MOL     -0.824552
    188 H92        -2.6640    2.3000    4.0390 ho        1 MOL      0.417105
    189 H93        -1.2550    2.6320    3.6180 ho        1 MOL      0.417105
    190 O27        -2.7560    6.1360   -0.5780 oh        1 MOL     -0.824552
    191 H94        -3.1390    6.4280   -1.3960 ho        1 MOL      0.417105
    192 H95        -1.8080    6.2230   -0.7040 ho        1 MOL      0.417105
    193 O28        -0.6570    4.8780    3.7710 oh        1 MOL     -0.824552
    194 H96         0.1860    4.4830    3.9720 ho        1 MOL      0.417105
    195 H97        -1.0530    5.0580    4.6230 ho        1 MOL      0.417105
    196 O29        -3.7270    4.8750    4.7940 oh        1 MOL     -0.824552
    197 H98        -4.3090    4.1160    4.7330 ho        1 MOL      0.417105
    198 H99        -4.3080    5.6300    4.7910 ho        1 MOL      0.417105
    199 O30        -2.7090    7.3440    3.1720 oh        1 MOL     -0.824552
    200 H100       -2.0160    7.5760    3.7910 ho        1 MOL      0.417105
    201 H101       -3.2240    8.1470    3.0800 ho        1 MOL      0.417105
@<TRIPOS>BOND
     1    1    2 1   
     2    1    4 1   
     3    1    5 1   
     4    1    6 1   
     5    2    3 2   
     6    2    7 1   
     7    7    8 1   
     8    7   15 1   
     9    8    9 1   
    10    8   11 1   
    11    8   16 1   
    12    9   10 2   
    13    9   19 1   
    14   11   12 1   
    15   11   17 1   
    16   11   18 1   
    17   12   13 1   
    18   12   14 1   
    19   19   20 1   
    20   19   28 1   
    21   20   21 1   
    22   20   23 1   
    23   20   29 1   
    24   21   22 2   
    25   21   41 1   
    26   23   24 1   
    27   23   30 1   
    28   23   31 1   
    29   24   25 1   
    30   24   32 1   
    31   24   33 1   
    32   25   26 1   
    33   25   34 1   
    34   25   35 1   
    35   26   27 1   
    36   26   36 1   
    37   26   37 1   
    38   27   38 1   
    39   27   39 1   
    40   27   40 1   
    41   41   42 1   
    42   41   49 1   
    43   42   43 1   
    44   42   45 1   
    45   42   50 1   
    46   43   44 2   
    47   43   53 1   
    48   45   46 1   
    49   45   51 1   
    50   45   52 1   
    51   46   47 1   
    52   46   48 1   
    53   53   54 1   
    54   53   57 1   
    55   54   55 1   
    56   54   58 1   
    57   54   59 1   
    58   55   56 2   
    59   55   60 1   
    60   60   61 1   
    61   60   68 1   
    62   61   62 1   
    63   61   64 1   
    64   61   69 1   
    65   62   63 2   
    66   62   72 1   
    67   64   65 1   
    68   64   70 1   
    69   64   71 1   
    70   65   66 1   
    71   65   67 1   
    72   72   73 1   
    73   72   76 1   
    74   73   74 1   
    75   73   77 1   
    76   73   78 1   
    77   74   75 2   
    78   74   79 1   
    79   79   80 1   
    80   79   86 1   
    81   80   81 1   
    82   80   83 1   
    83   80   87 1   
    84   81   82 2   
    85   81   93 1   
    86   83   84 1   
    87   83   85 1   
    88   83   88 1   
    89   84   90 1   
    90   84   91 1   
    91   84   92 1   
    92   85   89 1   
    93   93   94 1   
    94   93  101 1   
    95   94   95 1   
    96   94   97 1   
    97   94  102 1   
    98   95   96 2   
    99   95  112 1   
   100   97   98 1   
   101   97   99 1   
   102   97  103 1   
   103   98  100 1   
   104   98  104 1   
   105   98  105 1   
   106   99  106 1   
   107   99  107 1   
   108   99  108 1   
   109  100  109 1   
   110  100  110 1   
   111  100  111 1   
   112  112  113 1   
   113  112  119 1   
   114  113  114 1   
   115  113  116 1   
   116  113  120 1   
   117  114  115 2   
   118  114  126 1   
   119  116  117 1   
   120  116  118 1   
   121  116  121 1   
   122  117  123 1   
   123  117  124 1   
   124  117  125 1   
   125  118  122 1   
   126  126  127 1   
   127  126  133 1   
   128  127  128 1   
   129  127  130 1   
   130  127  134 1   
   131  128  129 2   
   132  128  140 1   
   133  130  131 1   
   134  130  132 1   
   135  130  135 1   
   136  131  137 1   
   137  131  138 1   
   138  131  139 1   
   139  132  136 1   
   140  140  141 1   
   141  140  149 1   
   142  141  142 1   
   143  141  144 1   
   144  141  150 1   
   145  142  143 2   
   146  142  162 1   
   147  144  145 1   
   148  144  151 1   
   149  144  152 1   
   150  145  146 1   
   151  145  153 1   
   152  145  154 1   
   153  146  147 1   
   154  146  155 1   
   155  146  156 1   
   156  147  148 1   
   157  147  157 1   
   158  147  158 1   
   159  148  159 1   
   160  148  160 1   
   161  148  161 1   
   162  162  163 1   
   163  162  171 1   
   164  163  164 1   
   165  163  166 1   
   166  163  172 1   
   167  164  165 2   
   168  164  177 1   
   169  166  167 1   
   170  166  173 1   
   171  166  174 1   
   172  167  168 1   
   173  167  175 1   
   174  167  176 1   
   175  168  169 1   
   176  168  170 1   
   177  177  178 1   
   178  177  182 1   
   179  178  179 1   
   180  178  180 1   
   181  178  181 1   
   182  184  185 1   
   183  184  186 1   
   184  187  188 1   
   185  187  189 1   
   186  190  191 1   
   187  190  192 1   
   188  193  194 1   
   189  193  195 1   
   190  196  197 1   
   191  196  198 1   
   192  199  200 1   
   193  199  201 1   
@<TRIPOS>SUBSTRUCTURE
     1 MOL         1 TEMP              0 ****  ****    0 ROOT
