@<TRIPOS>MOLECULE
MOL
  195   189     1     0     0
SMALL
resp


@<TRIPOS>ATOM
      1 C1        -10.5080   -6.4550   -2.1080 c3        1 MOL     -0.720921
      2 C2        -10.3760   -4.9780   -1.6040 c         1 MOL      0.921229
      3 O1        -10.8970   -4.0590   -2.2560 o         1 MOL     -0.615244
      4 H1        -11.2520   -6.5010   -2.9030 hc        1 MOL      0.185854
      5 H2         -9.5470   -6.7960   -2.4900 hc        1 MOL      0.185854
      6 H3        -10.8190   -7.0950   -1.2820 hc        1 MOL      0.185854
      7 N1         -9.8660   -4.8510   -0.3690 n         1 MOL     -0.611240
      8 C3         -9.8110   -3.4690    0.1960 c3        1 MOL     -0.051898
      9 C4         -8.5640   -2.5680   -0.2870 c         1 MOL      0.098180
     10 O2         -7.4830   -3.0880   -0.6160 o         1 MOL     -0.402056
     11 C5         -9.8260   -3.5370    1.7150 c3        1 MOL      0.156696
     12 C6         -8.8630   -4.5750    2.2660 c         1 MOL      0.831421
     13 O3         -9.1240   -5.0550    3.3930 o         1 MOL     -0.754179
     14 O4         -7.8300   -4.8990    1.6140 o         1 MOL     -0.754179
     15 H4         -9.6350   -5.6510    0.2040 hn        1 MOL      0.235502
     16 H5        -10.7120   -2.9240   -0.0950 h1        1 MOL      0.116948
     17 H6        -10.8790   -3.7360    1.9060 hc        1 MOL     -0.015150
     18 H7         -9.6260   -2.5700    2.1800 hc        1 MOL     -0.015150
     19 N2         -8.7010   -1.2020   -0.5920 n         1 MOL     -0.177045
     20 C7         -7.6240   -0.2280   -1.0010 c3        1 MOL      0.248153
     21 C8         -6.7910    0.3260    0.0830 c         1 MOL      0.441783
     22 O5         -6.8250    1.5360    0.3220 o         1 MOL     -0.513565
     23 C9         -8.2820    0.8590   -1.9330 c3        1 MOL     -0.636014
     24 C10        -9.5250    1.6500   -1.5000 c3        1 MOL      0.456761
     25 C11        -9.9120    2.8420   -2.3990 c3        1 MOL     -0.050046
     26 C12       -11.3220    3.3950   -1.9380 c3        1 MOL      0.072379
     27 N3        -11.2220    4.8370   -1.5070 n4        1 MOL     -0.260025
     28 H8         -9.4780   -0.7230   -0.1530 hn        1 MOL      0.186410
     29 H9         -6.9500   -0.8440   -1.6060 h1        1 MOL      0.064630
     30 H10        -8.4870    0.2020   -2.7780 hc        1 MOL      0.131724
     31 H11        -7.5170    1.5570   -2.2810 hc        1 MOL      0.131724
     32 H12        -9.4480    2.0750   -0.5030 hc        1 MOL     -0.068814
     33 H13       -10.3610    0.9520   -1.4890 hc        1 MOL     -0.068814
     34 H14        -9.9950    2.5200   -3.4420 hc        1 MOL      0.032572
     35 H15        -9.1090    3.5700   -2.3200 hc        1 MOL      0.032572
     36 H16       -11.7140    2.7860   -1.1190 hx        1 MOL      0.047775
     37 H17       -12.0150    3.3470   -2.7710 hx        1 MOL      0.047775
     38 H18       -12.1340    5.1560   -1.1970 hn        1 MOL      0.260979
     39 H19       -10.5520    4.9960   -0.7710 hn        1 MOL      0.260979
     40 H20       -11.0040    5.4050   -2.3030 hn        1 MOL      0.260979
     41 N4         -5.9500   -0.4930    0.6330 n         1 MOL     -0.406131
     42 C13        -4.9810   -0.1800    1.6910 c3        1 MOL      0.266248
     43 C14        -3.4890   -0.1780    1.2410 c         1 MOL      0.441661
     44 O6         -3.1080   -1.0310    0.4270 o         1 MOL     -0.563559
     45 C15        -5.3200   -0.9820    2.9030 c3        1 MOL      0.174948
     46 C16        -5.3320   -2.5540    2.7920 c         1 MOL      0.460844
     47 O7         -5.5690   -3.1570    3.8240 o         1 MOL     -0.617413
     48 O8         -5.1330   -3.0600    1.7010 o         1 MOL     -0.617413
     49 H21        -5.8540   -1.4260    0.2630 hn        1 MOL      0.175381
     50 H22        -5.1520    0.8300    2.0800 h1        1 MOL     -0.037740
     51 H23        -6.3220   -0.7100    3.2460 hc        1 MOL     -0.029212
     52 H24        -4.6510   -0.6730    3.7000 hc        1 MOL     -0.029212
     53 N5         -2.6000    0.7270    1.6940 n         1 MOL     -0.429059
     54 C17        -2.8800    1.7930    2.7610 c3        1 MOL     -0.014557
     55 C18        -3.1640    3.1810    2.2000 c         1 MOL      0.616635
     56 O9         -3.8670    3.3660    1.1870 o         1 MOL     -0.528193
     57 H25        -1.6650    0.6380    1.3240 hn        1 MOL      0.345861
     58 H26        -2.0290    1.8400    3.4340 h1        1 MOL      0.061171
     59 H27        -3.6750    1.5450    3.4670 h1        1 MOL      0.061171
     60 N6         -2.7240    4.2070    2.9760 n         1 MOL     -0.512670
     61 C19        -2.8880    5.5820    2.7140 c3        1 MOL      0.160414
     62 C20        -2.0790    6.0410    1.4330 c         1 MOL      0.473168
     63 O10        -0.8010    6.0360    1.3410 o         1 MOL     -0.527198
     64 C21        -2.5060    6.4010    4.0060 c3        1 MOL     -0.217078
     65 C22        -3.0580    7.8130    3.8390 c         1 MOL      0.708562
     66 O11        -3.4410    8.2490    2.7270 o         1 MOL     -0.662518
     67 O12        -3.0120    8.5760    4.8100 o         1 MOL     -0.662518
     68 H28        -2.3640    3.9440    3.8880 hn        1 MOL      0.283172
     69 H29        -3.9340    5.8070    2.4840 h1        1 MOL      0.010442
     70 H30        -1.4280    6.2530    4.1370 hc        1 MOL      0.055877
     71 H31        -3.0620    5.9770    4.8460 hc        1 MOL      0.055877
     72 N7         -2.8550    6.2810    0.3460 n         1 MOL     -0.363873
     73 C23        -2.2270    6.4820   -1.0090 c3        1 MOL     -0.038600
     74 C24        -1.9530    5.1520   -1.7500 c         1 MOL      0.423896
     75 O13        -1.7500    5.2790   -2.9730 o         1 MOL     -0.583430
     76 H32        -3.8320    6.5110    0.5000 hn        1 MOL      0.269022
     77 H33        -1.2910    7.0420   -1.0520 h1        1 MOL      0.095883
     78 H34        -2.9170    7.1130   -1.5790 h1        1 MOL      0.095883
     79 N8         -2.0130    4.0300   -1.1560 n         1 MOL     -0.125788
     80 C25        -1.5420    2.7180   -1.7410 c3        1 MOL      0.154996
     81 C26        -0.5150    2.0380   -0.8730 c         1 MOL      0.451505
     82 O14        -0.3080    2.3300    0.2860 o         1 MOL     -0.487552
     83 C27        -2.7170    1.7950   -2.0390 c3        1 MOL      0.212758
     84 C28        -3.9160    2.4850   -2.6710 c3        1 MOL     -0.361448
     85 O15        -2.2620    0.8480   -2.9720 oh        1 MOL     -0.581689
     86 H35        -2.1240    3.8870   -0.1610 hn        1 MOL      0.056916
     87 H36        -1.0550    2.8820   -2.6930 h1        1 MOL      0.043429
     88 H37        -3.0570    1.3520   -1.1000 h1        1 MOL      0.014854
     89 H38        -3.0230    0.2970   -3.2110 ho        1 MOL      0.366292
     90 H39        -4.7830    1.8370   -2.6160 hc        1 MOL      0.102596
     91 H40        -4.2270    3.3760   -2.1110 hc        1 MOL      0.102596
     92 H41        -3.6620    2.8000   -3.6820 hc        1 MOL      0.102596
     93 N9          0.1080    1.0090   -1.4240 n         1 MOL     -0.259253
     94 C29         0.8610   -0.0650   -0.8660 c3        1 MOL     -0.496778
     95 C30         2.3190    0.2710   -0.3780 c         1 MOL      0.722993
     96 O16         2.8810   -0.4550    0.4560 o         1 MOL     -0.566928
     97 C31         0.9660   -1.4120   -1.7210 c3        1 MOL      0.200407
     98 C32         1.7300   -1.3770   -3.0700 c3        1 MOL     -0.064459
     99 C33        -0.4830   -2.0100   -1.9060 c3        1 MOL     -0.080095
    100 C34         1.9670   -2.6850   -3.7830 c3        1 MOL     -0.124838
    101 H42        -0.1590    0.8290   -2.3870 hn        1 MOL      0.253761
    102 H43         0.3190   -0.3150    0.0460 h1        1 MOL      0.160062
    103 H44         1.5190   -2.1320   -1.1010 hc        1 MOL      0.048302
    104 H45         2.6970   -0.8880   -2.9510 hc        1 MOL      0.040215
    105 H46         1.1710   -0.7310   -3.7420 hc        1 MOL      0.040215
    106 H47        -1.0200   -2.0260   -0.9570 hc        1 MOL      0.025172
    107 H48        -1.0060   -1.5460   -2.7530 hc        1 MOL      0.025172
    108 H49        -0.3440   -3.0410   -2.2330 hc        1 MOL      0.025172
    109 H50         2.1980   -3.4490   -3.0400 hc        1 MOL      0.033174
    110 H51         1.0840   -2.9610   -4.3600 hc        1 MOL      0.033174
    111 H52         2.7410   -2.6610   -4.5520 hc        1 MOL      0.033174
    112 N10         2.9410    1.2570   -0.9840 n         1 MOL     -0.520311
    113 C35         4.2680    1.8230   -0.5930 c3        1 MOL      0.130870
    114 C36         5.1840    2.1370   -1.8190 c         1 MOL      0.545439
    115 O17         4.7420    2.4440   -2.9030 o         1 MOL     -0.533909
    116 C37         4.1250    3.0680    0.3140 c3        1 MOL      0.425575
    117 C38         3.5240    2.6220    1.6660 c3        1 MOL     -0.346498
    118 O18         5.2660    3.8020    0.6270 oh        1 MOL     -0.701799
    119 H53         2.3070    1.8650   -1.4720 hn        1 MOL      0.242345
    120 H54         4.7710    1.0270   -0.0430 h1        1 MOL      0.035975
    121 H55         3.4450    3.8020   -0.1090 h1        1 MOL      0.006925
    122 H56         4.9610    4.3770    1.3330 ho        1 MOL      0.424137
    123 H57         2.5660    2.1640    1.4130 hc        1 MOL      0.085450
    124 H58         4.0970    1.9580    2.3030 hc        1 MOL      0.085450
    125 H59         3.3610    3.5070    2.2830 hc        1 MOL      0.085450
    126 N11         6.4350    2.2870   -1.4990 n         1 MOL     -0.445467
    127 C39         7.4730    2.3830   -2.4830 c3        1 MOL     -0.009156
    128 C40         8.3810    1.1590   -2.4900 c         1 MOL      0.604560
    129 O19         8.8650    0.7840   -3.5680 o         1 MOL     -0.540591
    130 C41         8.2730    3.6580   -2.1810 c3        1 MOL      0.296022
    131 C42         9.5200    3.8050   -3.0140 c3        1 MOL     -0.461613
    132 O20         8.6360    3.7200   -0.8000 oh        1 MOL     -0.585719
    133 H60         6.6610    2.0500   -0.5440 hn        1 MOL      0.266555
    134 H61         7.1070    2.4470   -3.5050 h1        1 MOL      0.114106
    135 H62         7.7150    4.5910   -2.1630 h1        1 MOL      0.047045
    136 H63         9.2280    4.4660   -0.7180 ho        1 MOL      0.384538
    137 H64        10.1120    2.8980   -3.1590 hc        1 MOL      0.121948
    138 H65         9.1750    4.0510   -4.0170 hc        1 MOL      0.121948
    139 H66        10.1810    4.5920   -2.6520 hc        1 MOL      0.121948
    140 N12         8.7770    0.5650   -1.3060 n         1 MOL     -0.551359
    141 C43         9.8950   -0.4270   -1.2230 c3        1 MOL      0.049639
    142 C44         9.6110   -1.4830   -0.1130 c         1 MOL      0.458962
    143 O21         8.9910   -1.0960    0.9330 o         1 MOL     -0.513854
    144 C45        11.1830    0.3220   -1.0590 c3        1 MOL     -0.207691
    145 C46        11.3380    0.8980    0.3230 c3        1 MOL      0.142563
    146 C47        12.5000    1.8010    0.5210 c3        1 MOL     -0.057119
    147 C48        12.6200    2.2090    2.0100 c3        1 MOL      0.142113
    148 N13        13.8770    2.9190    2.3520 n4        1 MOL     -0.315562
    149 H67         8.3830    0.9540   -0.4610 hn        1 MOL      0.332902
    150 H68         9.9660   -0.9900   -2.1560 h1        1 MOL      0.118776
    151 H69        11.3350    1.0910   -1.8150 hc        1 MOL      0.083240
    152 H70        12.0430   -0.3350   -1.0430 hc        1 MOL      0.083240
    153 H71        11.5730    0.0530    0.9620 hc        1 MOL     -0.001438
    154 H72        10.4260    1.3980    0.6300 hc        1 MOL     -0.001438
    155 H73        12.3000    2.6770   -0.0950 hc        1 MOL      0.010178
    156 H74        13.3620    1.2500    0.1460 hc        1 MOL      0.010178
    157 H75        12.4010    1.3960    2.7040 hx        1 MOL      0.050248
    158 H76        11.7880    2.9070    2.1400 hx        1 MOL      0.050248
    159 H77        13.9940    3.7610    1.8140 hn        1 MOL      0.260942
    160 H78        13.9830    3.0150    3.3590 hn        1 MOL      0.260942
    161 H79        14.6920    2.3640    2.1310 hn        1 MOL      0.260942
    162 N14        10.1350   -2.7270   -0.1840 n         1 MOL     -0.400937
    163 C49        10.4400   -3.6110    1.0120 c3        1 MOL      0.222708
    164 C50         9.2600   -4.1900    1.8040 c         1 MOL      0.404704
    165 O22         9.2440   -4.1260    3.0160 o         1 MOL     -0.547804
    166 C51        11.1960   -4.8050    0.5470 c3        1 MOL      0.000426
    167 C52        12.0570   -5.4600    1.5890 c3        1 MOL     -0.274626
    168 C53        12.4620   -6.8290    1.0510 c         1 MOL      0.775906
    169 O23        13.0230   -6.8850   -0.0230 o         1 MOL     -0.661457
    170 O24        12.3090   -7.8670    1.7270 o         1 MOL     -0.661457
    171 H80        10.4840   -3.0030   -1.0980 hn        1 MOL      0.228579
    172 H81        11.0710   -3.0350    1.6980 h1        1 MOL      0.036282
    173 H82        11.9890   -4.5720   -0.1780 hc        1 MOL      0.011458
    174 H83        10.5920   -5.6000    0.1280 hc        1 MOL      0.011458
    175 H84        11.4680   -5.6480    2.4850 hc        1 MOL      0.047364
    176 H85        12.8890   -4.7970    1.8470 hc        1 MOL      0.047364
    177 N15         8.0820   -4.6580    1.3550 n         1 MOL     -0.284194
    178 C54         7.6130   -4.7130   -0.0070 c3        1 MOL     -0.104111
    179 H86         6.7770   -5.4090   -0.0750 h1        1 MOL      0.060446
    180 H87         7.2860   -3.7210   -0.3200 h1        1 MOL      0.060446
    181 H88         8.4210   -5.0510   -0.6560 h1        1 MOL      0.060446
    182 H89         7.3630   -4.8120    2.0560 hn        1 MOL      0.289180
    183 Ca1        -5.7180   -4.9180    0.0200 Ca        1 MOL      1.709169
    184 O25        -4.9850   -5.6860    2.5820 oh        1 MOL     -0.849919
    185 H90        -4.9730   -4.8000    2.9580 ho        1 MOL      0.415452
    186 H91        -5.6280   -6.1620    3.1060 ho        1 MOL      0.415452
    187 O26        -3.0030   -4.9630    0.0480 oh        1 MOL     -0.849919
    188 H92        -2.8310   -5.8960    0.1740 ho        1 MOL      0.415452
    189 H93        -2.6520   -4.5470    0.8310 ho        1 MOL      0.415452
    190 O27        -6.0280   -4.9270   -2.7650 oh        1 MOL     -0.849919
    191 H94        -5.8060   -4.2330   -3.4000 ho        1 MOL      0.415452
    192 H95        -6.5270   -5.5680   -3.2740 ho        1 MOL      0.415452
    193 O28        -4.4960   -2.6920   -1.1860 oh        1 MOL     -0.849919
    194 H96        -4.3200   -2.2800   -2.0280 ho        1 MOL      0.415452
    195 H97        -4.1730   -2.0630   -0.5460 ho        1 MOL      0.415452
@<TRIPOS>BOND
     1    1    2 1   
     2    1    4 1   
     3    1    5 1   
     4    1    6 1   
     5    2    3 2   
     6    2    7 1   
     7    7    8 1   
     8    7   15 1   
     9    8    9 1   
    10    8   11 1   
    11    8   16 1   
    12    9   10 2   
    13    9   19 1   
    14   11   12 1   
    15   11   17 1   
    16   11   18 1   
    17   12   13 1   
    18   12   14 1   
    19   19   20 1   
    20   19   28 1   
    21   20   21 1   
    22   20   23 1   
    23   20   29 1   
    24   21   22 2   
    25   21   41 1   
    26   23   24 1   
    27   23   30 1   
    28   23   31 1   
    29   24   25 1   
    30   24   32 1   
    31   24   33 1   
    32   25   26 1   
    33   25   34 1   
    34   25   35 1   
    35   26   27 1   
    36   26   36 1   
    37   26   37 1   
    38   27   38 1   
    39   27   39 1   
    40   27   40 1   
    41   41   42 1   
    42   41   49 1   
    43   42   43 1   
    44   42   45 1   
    45   42   50 1   
    46   43   44 2   
    47   43   53 1   
    48   45   46 1   
    49   45   51 1   
    50   45   52 1   
    51   46   47 1   
    52   46   48 1   
    53   53   54 1   
    54   53   57 1   
    55   54   55 1   
    56   54   58 1   
    57   54   59 1   
    58   55   56 2   
    59   55   60 1   
    60   60   61 1   
    61   60   68 1   
    62   61   62 1   
    63   61   64 1   
    64   61   69 1   
    65   62   63 2   
    66   62   72 1   
    67   64   65 1   
    68   64   70 1   
    69   64   71 1   
    70   65   66 1   
    71   65   67 1   
    72   72   73 1   
    73   72   76 1   
    74   73   74 1   
    75   73   77 1   
    76   73   78 1   
    77   74   75 2   
    78   74   79 1   
    79   79   80 1   
    80   79   86 1   
    81   80   81 1   
    82   80   83 1   
    83   80   87 1   
    84   81   82 2   
    85   81   93 1   
    86   83   84 1   
    87   83   85 1   
    88   83   88 1   
    89   84   90 1   
    90   84   91 1   
    91   84   92 1   
    92   85   89 1   
    93   93   94 1   
    94   93  101 1   
    95   94   95 1   
    96   94   97 1   
    97   94  102 1   
    98   95   96 2   
    99   95  112 1   
   100   97   98 1   
   101   97   99 1   
   102   97  103 1   
   103   98  100 1   
   104   98  104 1   
   105   98  105 1   
   106   99  106 1   
   107   99  107 1   
   108   99  108 1   
   109  100  109 1   
   110  100  110 1   
   111  100  111 1   
   112  112  113 1   
   113  112  119 1   
   114  113  114 1   
   115  113  116 1   
   116  113  120 1   
   117  114  115 2   
   118  114  126 1   
   119  116  117 1   
   120  116  118 1   
   121  116  121 1   
   122  117  123 1   
   123  117  124 1   
   124  117  125 1   
   125  118  122 1   
   126  126  127 1   
   127  126  133 1   
   128  127  128 1   
   129  127  130 1   
   130  127  134 1   
   131  128  129 2   
   132  128  140 1   
   133  130  131 1   
   134  130  132 1   
   135  130  135 1   
   136  131  137 1   
   137  131  138 1   
   138  131  139 1   
   139  132  136 1   
   140  140  141 1   
   141  140  149 1   
   142  141  142 1   
   143  141  144 1   
   144  141  150 1   
   145  142  143 2   
   146  142  162 1   
   147  144  145 1   
   148  144  151 1   
   149  144  152 1   
   150  145  146 1   
   151  145  153 1   
   152  145  154 1   
   153  146  147 1   
   154  146  155 1   
   155  146  156 1   
   156  147  148 1   
   157  147  157 1   
   158  147  158 1   
   159  148  159 1   
   160  148  160 1   
   161  148  161 1   
   162  162  163 1   
   163  162  171 1   
   164  163  164 1   
   165  163  166 1   
   166  163  172 1   
   167  164  165 2   
   168  164  177 1   
   169  166  167 1   
   170  166  173 1   
   171  166  174 1   
   172  167  168 1   
   173  167  175 1   
   174  167  176 1   
   175  168  169 1   
   176  168  170 1   
   177  177  178 1   
   178  177  182 1   
   179  178  179 1   
   180  178  180 1   
   181  178  181 1   
   182  184  185 1   
   183  184  186 1   
   184  187  188 1   
   185  187  189 1   
   186  190  191 1   
   187  190  192 1   
   188  193  194 1   
   189  193  195 1   
@<TRIPOS>SUBSTRUCTURE
     1 MOL         1 TEMP              0 ****  ****    0 ROOT
