@<TRIPOS>MOLECULE
MOL
  192   187     1     0     0
SMALL
resp


@<TRIPOS>ATOM
      1 C1         -6.2860   -3.2560    3.5010 c3        1 MOL      0.004972
      2 C2         -5.0310   -2.9410    2.5450 c         1 MOL      0.520297
      3 O1         -4.4950   -1.8410    2.6300 o         1 MOL     -0.455634
      4 H1         -7.2120   -3.1050    2.9460 hc        1 MOL     -0.019630
      5 H2         -6.2330   -4.2890    3.8430 hc        1 MOL     -0.019630
      6 H3         -6.2660   -2.5860    4.3620 hc        1 MOL     -0.019630
      7 N1         -4.6380   -3.8290    1.5690 n         1 MOL     -0.717600
      8 C3         -3.4800   -3.5600    0.7150 c3        1 MOL      0.107515
      9 C4         -2.1980   -3.2500    1.3940 c         1 MOL      0.568530
     10 O2         -1.4370   -2.4330    0.8250 o         1 MOL     -0.555018
     11 C5         -3.8740   -2.6160   -0.4660 c3        1 MOL     -0.274191
     12 C6         -5.1200   -3.0290   -1.2730 c         1 MOL      0.452210
     13 O3         -6.2180   -2.3330   -1.2240 o         1 MOL     -0.583227
     14 O4         -4.9670   -3.9600   -2.0740 o         1 MOL     -0.583227
     15 H4         -5.0340   -4.7500    1.5280 hn        1 MOL      0.351482
     16 H5         -3.2980   -4.5520    0.2900 h1        1 MOL      0.089222
     17 H6         -3.0170   -2.6110   -1.1370 hc        1 MOL      0.153834
     18 H7         -4.0500   -1.6110   -0.0690 hc        1 MOL      0.153834
     19 N2         -1.8580   -3.9980    2.4220 n         1 MOL     -0.535886
     20 C7         -0.5290   -4.1030    2.9550 c3        1 MOL     -0.066896
     21 C8          0.0090   -5.5550    2.6760 c         1 MOL      0.566630
     22 O5         -0.4190   -6.5640    3.1920 o         1 MOL     -0.587448
     23 C9         -0.5290   -3.7940    4.4450 c3        1 MOL      0.333590
     24 C10        -1.1960   -2.4360    4.8380 c3        1 MOL     -0.284390
     25 C11         0.8920   -3.8310    5.0390 c3        1 MOL     -0.293722
     26 C12        -1.0120   -1.9260    6.2530 c3        1 MOL     -0.023554
     27 H8         -2.5700   -4.6080    2.8050 hn        1 MOL      0.317254
     28 H9          0.0700   -3.3570    2.4350 h1        1 MOL      0.139005
     29 H10        -1.1730   -4.5780    4.8360 hc        1 MOL     -0.068885
     30 H11        -2.2690   -2.3420    4.6530 hc        1 MOL      0.132745
     31 H12        -0.6070   -1.7450    4.2320 hc        1 MOL      0.132745
     32 H13         1.3420   -2.8430    4.9350 hc        1 MOL      0.062595
     33 H14         0.7240   -4.3480    5.9810 hc        1 MOL      0.062595
     34 H15         1.5590   -4.5490    4.5640 hc        1 MOL      0.062595
     35 H16         0.0220   -1.7160    6.5400 hc        1 MOL      0.005885
     36 H17        -1.5910   -1.0390    6.5080 hc        1 MOL      0.005885
     37 H18        -1.2980   -2.6860    6.9680 hc        1 MOL      0.005885
     38 N3          0.9540   -5.6400    1.7530 n         1 MOL     -0.388281
     39 C13         1.7310   -4.6520    0.8890 c3        1 MOL     -0.061694
     40 C14         2.4030   -5.5060   -0.2390 c         1 MOL      0.452208
     41 O6          2.7140   -6.7390   -0.0270 o         1 MOL     -0.514272
     42 C15         2.8840   -4.0460    1.6950 c3        1 MOL     -0.209532
     43 C16         3.6630   -2.9050    1.0670 c         1 MOL      0.714854
     44 O7          4.6730   -3.2320    0.4180 o         1 MOL     -0.675394
     45 O8          3.2360   -1.7220    1.1050 o         1 MOL     -0.675394
     46 H19         1.3100   -6.5840    1.6530 hn        1 MOL      0.254549
     47 H20         1.1350   -3.8520    0.4550 h1        1 MOL      0.116800
     48 H21         3.5930   -4.8540    1.8500 hc        1 MOL      0.059634
     49 H22         2.5170   -3.7910    2.6840 hc        1 MOL      0.059634
     50 N4          2.6010   -4.9330   -1.4200 n         1 MOL     -0.403092
     51 C17         3.3770   -5.6410   -2.5070 c3        1 MOL      0.000769
     52 C18         4.6070   -4.8970   -3.0900 c         1 MOL      0.608281
     53 O9          5.1640   -5.3160   -4.0530 o         1 MOL     -0.602282
     54 H23         2.2310   -4.0210   -1.6320 hn        1 MOL      0.326466
     55 H24         2.7280   -5.9270   -3.3400 h1        1 MOL      0.060721
     56 H25         3.6930   -6.5910   -2.0780 h1        1 MOL      0.060721
     57 N5          5.0400   -3.7510   -2.5550 n         1 MOL     -0.609763
     58 C19         6.1200   -2.9520   -3.1640 c3        1 MOL      0.267091
     59 C20         7.2030   -2.4220   -2.1700 c         1 MOL      0.428268
     60 O10         8.3290   -2.1750   -2.6220 o         1 MOL     -0.598176
     61 C21         5.4590   -1.8150   -3.9560 c3        1 MOL     -0.149273
     62 C22         4.5820   -0.8320   -3.2290 c         1 MOL      0.688268
     63 O11         5.1230   -0.1270   -2.3440 o         1 MOL     -0.665952
     64 O12         3.3640   -0.8770   -3.4210 o         1 MOL     -0.665952
     65 H26         4.5640   -3.5080   -1.6980 hn        1 MOL      0.356632
     66 H27         6.7250   -3.4750   -3.9010 h1        1 MOL      0.051403
     67 H28         5.0130   -2.1920   -4.8760 hc        1 MOL      0.003941
     68 H29         6.3060   -1.2750   -4.3930 hc        1 MOL      0.003941
     69 N6          6.9500   -2.2150   -0.9020 n         1 MOL     -0.351073
     70 C23         7.9820   -1.7320    0.0540 c3        1 MOL     -0.085696
     71 C24         8.2990   -0.2600   -0.0200 c         1 MOL      0.462844
     72 O13         9.2550    0.1970    0.5580 o         1 MOL     -0.600884
     73 H30         5.9670   -2.2400   -0.6540 hn        1 MOL      0.270843
     74 H31         8.8920   -2.3290    0.0630 h1        1 MOL      0.092184
     75 H32         7.5410   -1.9670    1.0190 h1        1 MOL      0.092184
     76 N7          7.3400    0.4660   -0.5950 n         1 MOL     -0.132523
     77 C25         7.3830    1.9500   -0.8190 c3        1 MOL      0.249812
     78 C26         7.3330    2.7700    0.4440 c         1 MOL      0.241049
     79 O14         7.8920    3.8690    0.4650 o         1 MOL     -0.522250
     80 C27         8.3230    2.3500   -1.9900 c3        1 MOL      0.034443
     81 C28         7.9810    1.6790   -3.2930 c3        1 MOL     -0.210419
     82 C29         8.9350    2.2770   -4.3260 c         1 MOL      0.642866
     83 N8          9.7750    1.4920   -4.9950 n         1 MOL     -0.775324
     84 O15         9.0310    3.4940   -4.5950 o         1 MOL     -0.579786
     85 H33         6.6310   -0.1140   -1.0240 hn        1 MOL      0.118857
     86 H34         6.3800    2.1440   -1.2120 h1        1 MOL      0.041567
     87 H35         9.3550    2.1920   -1.6950 hc        1 MOL      0.001771
     88 H36         8.2200    3.4050   -2.2400 hc        1 MOL      0.001771
     89 H37         6.9350    1.6740   -3.5910 hc        1 MOL      0.062226
     90 H38         8.1930    0.6140   -3.1950 hc        1 MOL      0.062226
     91 H39         9.8020    0.5490   -4.6250 hn        1 MOL      0.346541
     92 H40        10.5240    1.8690   -5.5570 hn        1 MOL      0.346541
     93 N9          6.7480    2.1710    1.4760 n         1 MOL     -0.044452
     94 C30         6.5950    2.8020    2.8170 c3        1 MOL     -0.074210
     95 C31         5.1370    3.0920    3.0320 c         1 MOL      0.457355
     96 O16         4.7930    3.7840    3.9710 o         1 MOL     -0.569067
     97 C32         7.1710    1.9230    3.9070 c3        1 MOL      0.352908
     98 C33         6.4620    0.5470    3.9330 c3        1 MOL     -0.283537
     99 C34         8.6220    1.5190    3.7400 c3        1 MOL     -0.283537
    100 H41         6.0890    1.4590    1.1880 hn        1 MOL      0.141327
    101 H42         7.0770    3.7780    2.9330 h1        1 MOL      0.083155
    102 H43         7.0410    2.4800    4.8380 hc        1 MOL     -0.066962
    103 H44         6.6810    0.0220    4.8600 hc        1 MOL      0.050629
    104 H45         5.3720    0.5600    3.9230 hc        1 MOL      0.050629
    105 H46         6.7520    0.0620    2.9950 hc        1 MOL      0.050629
    106 H47         8.8000    0.8900    4.6070 hc        1 MOL      0.050629
    107 H48         8.7620    0.9350    2.8300 hc        1 MOL      0.050629
    108 H49         9.2550    2.4050    3.7180 hc        1 MOL      0.050629
    109 N10         4.2220    2.6640    2.1940 n         1 MOL     -0.323532
    110 C35         2.7410    2.6840    2.2980 c3        1 MOL      0.005752
    111 C36         2.0260    2.7230    0.9650 c         1 MOL      0.703745
    112 O17         2.7370    2.8230   -0.0560 o         1 MOL     -0.566605
    113 C37         2.5350    1.2850    2.9850 c3        1 MOL     -0.046643
    114 C38         1.1610    0.6380    2.8290 c         1 MOL      0.528441
    115 N11         1.0360   -0.4560    2.1570 n         1 MOL     -0.694148
    116 O18         0.1820    1.1510    3.2620 o         1 MOL     -0.606558
    117 H50         4.5420    2.2800    1.3080 hn        1 MOL      0.201703
    118 H51         2.3600    3.4760    2.9540 h1        1 MOL      0.082987
    119 H52         2.6940    1.2480    4.0660 hc        1 MOL      0.039866
    120 H53         3.2190    0.5820    2.5320 hc        1 MOL      0.039866
    121 H54         1.8960   -0.8600    1.8210 hn        1 MOL      0.339273
    122 H55         0.1510   -0.9420    2.0910 hn        1 MOL      0.339273
    123 N12         0.7110    2.8460    0.9340 n         1 MOL     -0.674380
    124 C39        -0.1540    2.9280   -0.2340 c3        1 MOL      0.231556
    125 C40        -1.5360    3.6070    0.0110 c         1 MOL      0.521443
    126 O19        -2.0780    3.4260    1.1140 o         1 MOL     -0.569491
    127 C41        -0.4630    1.5140   -0.6830 c3        1 MOL     -0.238031
    128 C42        -1.5510    1.4630   -1.7120 ca        1 MOL      0.033407
    129 C43        -1.4390    2.1880   -2.9290 ca        1 MOL     -0.194564
    130 C44        -2.6960    0.6680   -1.4030 ca        1 MOL     -0.194564
    131 C45        -2.3400    2.0360   -3.9890 ca        1 MOL     -0.158732
    132 C46        -3.6610    0.5500   -2.4150 ca        1 MOL     -0.158732
    133 C47        -3.4550    1.1070   -3.6950 ca        1 MOL      0.235667
    134 O20        -4.3870    1.0190   -4.6350 oh        1 MOL     -0.535941
    135 H56         0.2870    2.8810    1.8470 hn        1 MOL      0.337080
    136 H57         0.2560    3.5390   -1.0390 h1        1 MOL      0.016031
    137 H58        -0.7100    0.9090    0.1840 hc        1 MOL      0.150206
    138 H59         0.4850    1.1120   -1.0380 hc        1 MOL      0.150206
    139 H60        -0.6030    2.8530   -3.0600 ha        1 MOL      0.130799
    140 H61        -2.7550    0.1810   -0.4430 ha        1 MOL      0.130799
    141 H62        -2.1310    2.4150   -4.9740 ha        1 MOL      0.133474
    142 H63        -4.5340   -0.0710   -2.2430 ha        1 MOL      0.133474
    143 H64        -5.1850    0.5560   -4.3930 ho        1 MOL      0.427634
    144 N13        -2.0250    4.4740   -0.8640 n         1 MOL     -0.343112
    145 C48        -3.2650    5.2510   -0.7410 c3        1 MOL      0.079667
    146 C49        -4.4500    4.8460   -1.6580 c         1 MOL      0.491328
    147 O21        -4.5360    5.2610   -2.8090 o         1 MOL     -0.560290
    148 C50        -2.9840    6.7690   -0.8150 c3        1 MOL     -0.006103
    149 C51        -2.1370    7.3150    0.3550 c3        1 MOL     -0.074399
    150 C52        -2.1930    8.8220    0.5310 c         1 MOL      0.718338
    151 O22        -2.1700    9.5840   -0.4410 o         1 MOL     -0.668398
    152 O23        -2.2510    9.2800    1.6750 o         1 MOL     -0.668398
    153 H65        -1.3560    4.5690   -1.6180 hn        1 MOL      0.257787
    154 H66        -3.6220    5.1710    0.2930 h1        1 MOL      0.080199
    155 H67        -3.9230    7.3180   -0.8820 hc        1 MOL      0.008150
    156 H68        -2.4070    6.9680   -1.7260 hc        1 MOL      0.008150
    157 H69        -1.1260    6.9490    0.2220 hc        1 MOL     -0.006069
    158 H70        -2.5000    6.9030    1.2990 hc        1 MOL     -0.006069
    159 N14        -5.5280    4.1430   -1.2320 n         1 MOL     -0.399048
    160 C53        -5.5490    3.3780    0.0150 c3        1 MOL      0.037311
    161 C54        -6.1990    4.0780    1.1630 c         1 MOL      0.499729
    162 O24        -6.8610    5.0970    0.9570 o         1 MOL     -0.525409
    163 C55        -6.1920    1.9650   -0.1270 c3        1 MOL     -0.001507
    164 C56        -7.7070    1.9480   -0.1310 c3        1 MOL     -0.094690
    165 C57        -8.1240    0.5930   -0.5260 c         1 MOL      0.518065
    166 O25        -8.5610    0.2970   -1.6990 o         1 MOL     -0.658094
    167 O26        -8.1540   -0.3250    0.3370 o         1 MOL     -0.658094
    168 H71        -6.3540    4.1760   -1.8060 hn        1 MOL      0.280550
    169 H72        -4.5140    3.3340    0.3480 h1        1 MOL      0.048583
    170 H73        -5.8980    1.4090    0.7600 hc        1 MOL      0.013145
    171 H74        -5.7870    1.3740   -0.9420 hc        1 MOL      0.013145
    172 H75        -8.0880    2.7260   -0.7980 hc        1 MOL      0.029462
    173 H76        -8.0700    2.1620    0.8790 hc        1 MOL      0.029462
    174 N15        -5.9990    3.5340    2.4570 n         1 MOL     -0.249874
    175 C58        -6.2500    4.1370    3.7730 c3        1 MOL     -0.321949
    176 H77        -7.3240    4.2360    3.9280 h1        1 MOL      0.123078
    177 H78        -5.8280    3.5010    4.5520 h1        1 MOL      0.123078
    178 H79        -5.7850    5.1230    3.8170 h1        1 MOL      0.123078
    179 H80        -5.4240    2.7090    2.5080 hn        1 MOL      0.248161
    180 Ca1        -8.7780   -2.3590   -1.2610 Ca        1 MOL      1.505074
    181 O27       -11.3360   -1.0380   -1.6500 oh        1 MOL     -0.738090
    182 H81       -11.6370   -0.2320   -2.0810 ho        1 MOL      0.343148
    183 H82       -12.0130   -1.6830   -1.8810 ho        1 MOL      0.343148
    184 O28        -7.8000   -4.6670   -2.1740 oh        1 MOL     -0.738090
    185 H83        -8.1070   -5.5620   -2.2970 ho        1 MOL      0.343148
    186 H84        -6.8450   -4.7390   -2.1060 ho        1 MOL      0.343148
    187 O29       -11.1180   -4.1070   -2.3600 oh        1 MOL     -0.738090
    188 H85       -11.3930   -4.2870   -1.4590 ho        1 MOL      0.343148
    189 H86       -11.1740   -4.9680   -2.7920 ho        1 MOL      0.343148
    190 O30        -9.2810   -2.1100   -3.8720 oh        1 MOL     -0.738090
    191 H87        -8.9900   -2.4060   -4.7300 ho        1 MOL      0.343148
    192 H88       -10.2130   -1.9080   -3.9940 ho        1 MOL      0.343148
@<TRIPOS>BOND
     1    1    2 1   
     2    1    4 1   
     3    1    5 1   
     4    1    6 1   
     5    2    3 2   
     6    2    7 1   
     7    7    8 1   
     8    7   15 1   
     9    8    9 1   
    10    8   11 1   
    11    8   16 1   
    12    9   10 2   
    13    9   19 1   
    14   11   12 1   
    15   11   17 1   
    16   11   18 1   
    17   12   13 1   
    18   12   14 1   
    19   19   20 1   
    20   19   27 1   
    21   20   21 1   
    22   20   23 1   
    23   20   28 1   
    24   21   22 2   
    25   21   38 1   
    26   23   24 1   
    27   23   25 1   
    28   23   29 1   
    29   24   26 1   
    30   24   30 1   
    31   24   31 1   
    32   25   32 1   
    33   25   33 1   
    34   25   34 1   
    35   26   35 1   
    36   26   36 1   
    37   26   37 1   
    38   38   39 1   
    39   38   46 1   
    40   39   40 1   
    41   39   42 1   
    42   39   47 1   
    43   40   41 2   
    44   40   50 1   
    45   42   43 1   
    46   42   48 1   
    47   42   49 1   
    48   43   44 1   
    49   43   45 1   
    50   50   51 1   
    51   50   54 1   
    52   51   52 1   
    53   51   55 1   
    54   51   56 1   
    55   52   53 2   
    56   52   57 1   
    57   57   58 1   
    58   57   65 1   
    59   58   59 1   
    60   58   61 1   
    61   58   66 1   
    62   59   60 2   
    63   59   69 1   
    64   61   62 1   
    65   61   67 1   
    66   61   68 1   
    67   62   63 1   
    68   62   64 1   
    69   69   70 1   
    70   69   73 1   
    71   70   71 1   
    72   70   74 1   
    73   70   75 1   
    74   71   72 2   
    75   71   76 1   
    76   76   77 1   
    77   76   85 1   
    78   77   78 1   
    79   77   80 1   
    80   77   86 1   
    81   78   79 2   
    82   78   93 1   
    83   80   81 1   
    84   80   87 1   
    85   80   88 1   
    86   81   82 1   
    87   81   89 1   
    88   81   90 1   
    89   82   83 1   
    90   82   84 2   
    91   83   91 1   
    92   83   92 1   
    93   93   94 1   
    94   93  100 1   
    95   94   95 1   
    96   94   97 1   
    97   94  101 1   
    98   95   96 2   
    99   95  109 1   
   100   97   98 1   
   101   97   99 1   
   102   97  102 1   
   103   98  103 1   
   104   98  104 1   
   105   98  105 1   
   106   99  106 1   
   107   99  107 1   
   108   99  108 1   
   109  109  110 1   
   110  109  117 1   
   111  110  111 1   
   112  110  113 1   
   113  110  118 1   
   114  111  112 2   
   115  111  123 1   
   116  113  114 1   
   117  113  119 1   
   118  113  120 1   
   119  114  115 1   
   120  114  116 2   
   121  115  121 1   
   122  115  122 1   
   123  123  124 1   
   124  123  135 1   
   125  124  125 1   
   126  124  127 1   
   127  124  136 1   
   128  125  126 2   
   129  125  144 1   
   130  127  128 1   
   131  127  137 1   
   132  127  138 1   
   133  128  129 ar  
   134  128  130 ar  
   135  129  131 ar  
   136  129  139 1   
   137  130  132 ar  
   138  130  140 1   
   139  131  133 ar  
   140  131  141 1   
   141  132  133 ar  
   142  132  142 1   
   143  133  134 1   
   144  134  143 1   
   145  144  145 1   
   146  144  153 1   
   147  145  146 1   
   148  145  148 1   
   149  145  154 1   
   150  146  147 2   
   151  146  159 1   
   152  148  149 1   
   153  148  155 1   
   154  148  156 1   
   155  149  150 1   
   156  149  157 1   
   157  149  158 1   
   158  150  151 1   
   159  150  152 1   
   160  159  160 1   
   161  159  168 1   
   162  160  161 1   
   163  160  163 1   
   164  160  169 1   
   165  161  162 2   
   166  161  174 1   
   167  163  164 1   
   168  163  170 1   
   169  163  171 1   
   170  164  165 1   
   171  164  172 1   
   172  164  173 1   
   173  165  166 1   
   174  165  167 1   
   175  174  175 1   
   176  174  179 1   
   177  175  176 1   
   178  175  177 1   
   179  175  178 1   
   180  181  182 1   
   181  181  183 1   
   182  184  185 1   
   183  184  186 1   
   184  187  188 1   
   185  187  189 1   
   186  190  191 1   
   187  190  192 1   
@<TRIPOS>SUBSTRUCTURE
     1 MOL         1 TEMP              0 ****  ****    0 ROOT
