@<TRIPOS>MOLECULE
MOL
  191   184     1     0     0
SMALL
resp


@<TRIPOS>ATOM
      1 C1          5.5040   -1.9720    4.5860 c3        1 MOL     -0.389005
      2 C2          5.8930   -0.9540    3.5340 c         1 MOL      0.770343
      3 O1          5.1450   -0.7940    2.5380 o         1 MOL     -0.598410
      4 H1          5.8780   -1.6500    5.5580 hc        1 MOL      0.099430
      5 H2          4.4180   -2.0570    4.6250 hc        1 MOL      0.099430
      6 H3          5.9360   -2.9400    4.3340 hc        1 MOL      0.099430
      7 N1          7.0880   -0.3940    3.6190 n         1 MOL     -0.539431
      8 C3          7.6810    0.6120    2.6810 c3        1 MOL      0.094675
      9 C4          7.7630    0.2430    1.1910 c         1 MOL      0.587921
     10 O2          8.2160    1.1290    0.4660 o         1 MOL     -0.518677
     11 C5          7.2170    2.0770    2.9920 c3        1 MOL     -0.217891
     12 C6          7.2220    2.4990    4.4860 c         1 MOL      0.693675
     13 O3          6.1330    2.7210    5.0720 o         1 MOL     -0.644030
     14 O4          8.2940    2.5040    5.1340 o         1 MOL     -0.644030
     15 H4          7.6860   -0.7280    4.3630 hn        1 MOL      0.309059
     16 H5          8.7220    0.6560    3.0110 h1        1 MOL      0.065953
     17 H6          6.2530    2.3640    2.5650 hc        1 MOL      0.056987
     18 H7          7.9580    2.7130    2.4970 hc        1 MOL      0.056987
     19 N2          7.5100   -1.0550    0.8780 n         1 MOL     -0.628934
     20 C7          7.5110   -1.6570   -0.3970 c3        1 MOL      0.179272
     21 C8          6.1730   -2.2530   -0.8360 c         1 MOL      0.523579
     22 O5          6.1190   -3.0470   -1.7890 o         1 MOL     -0.611331
     23 C9          8.6940   -2.6440   -0.6740 c3        1 MOL     -0.171711
     24 C10        10.0660   -2.0070   -0.5350 c3        1 MOL      0.060301
     25 C11        11.1180   -3.1010   -0.7130 c3        1 MOL     -0.083494
     26 C12        11.1070   -3.7450   -2.1020 c3        1 MOL      0.062932
     27 N3         12.0720   -4.8220   -2.3510 n4        1 MOL     -0.137595
     28 H8          7.0280   -1.5460    1.6130 hn        1 MOL      0.250971
     29 H9          7.6520   -0.8360   -1.1010 h1        1 MOL      0.050935
     30 H10         8.6240   -3.0910   -1.6750 hc        1 MOL      0.062528
     31 H11         8.4390   -3.5210   -0.0800 hc        1 MOL      0.062528
     32 H12        10.3120   -1.4930    0.3910 hc        1 MOL      0.045586
     33 H13        10.2240   -1.2370   -1.2880 hc        1 MOL      0.045586
     34 H14        10.9100   -3.8530    0.0460 hc        1 MOL      0.035372
     35 H15        12.0560   -2.5680   -0.5480 hc        1 MOL      0.035372
     36 H16        11.3320   -3.0020   -2.8720 hx        1 MOL      0.051434
     37 H17        10.0960   -4.1460   -2.1860 hx        1 MOL      0.051434
     38 H18        13.0120   -4.4420   -2.4060 hn        1 MOL      0.214873
     39 H19        12.1390   -5.5760   -1.6910 hn        1 MOL      0.214873
     40 H20        11.9580   -5.1940   -3.2820 hn        1 MOL      0.214873
     41 N4          5.0430   -1.9150   -0.2000 n         1 MOL     -0.297496
     42 C13         3.6970   -2.4360   -0.5730 c3        1 MOL     -0.157384
     43 C14         3.1100   -1.6150   -1.7180 c         1 MOL      0.452693
     44 O6          2.8040   -0.4210   -1.7510 o         1 MOL     -0.508885
     45 C15         2.7900   -2.4170    0.6660 c3        1 MOL     -0.317336
     46 C16         1.4910   -3.1600    0.4900 c         1 MOL      0.661591
     47 O7          1.1090   -4.0200    1.3080 o         1 MOL     -0.649626
     48 O8          0.7530   -3.0310   -0.5110 o         1 MOL     -0.649626
     49 H21         5.0060   -1.2310    0.5440 hn        1 MOL      0.293029
     50 H22         3.9910   -3.4290   -0.9220 h1        1 MOL      0.139835
     51 H23         2.6010   -1.3960    1.0130 hc        1 MOL      0.133296
     52 H24         3.3410   -2.8150    1.5220 hc        1 MOL      0.133296
     53 N5          2.6940   -2.4190   -2.6990 n         1 MOL     -0.051232
     54 C17         2.1760   -1.9910   -3.9850 c3        1 MOL     -0.387560
     55 C18         0.8870   -1.2120   -4.0730 c         1 MOL      0.568844
     56 O9          0.5320   -0.7360   -5.1480 o         1 MOL     -0.541538
     57 H25         2.9550   -3.3840   -2.5840 hn        1 MOL      0.170114
     58 H26         1.8860   -2.8860   -4.5360 h1        1 MOL      0.139562
     59 H27         2.9080   -1.3870   -4.5230 h1        1 MOL      0.139562
     60 N6          0.1410   -1.0950   -2.9500 n         1 MOL     -0.144997
     61 C19        -1.0000   -0.2140   -2.8230 c3        1 MOL     -0.208789
     62 C20        -0.6580    1.2670   -2.5160 c         1 MOL      0.567402
     63 O10        -1.5280    2.1660   -2.5020 o         1 MOL     -0.503207
     64 C21        -1.9010   -0.7470   -1.6880 c3        1 MOL     -0.147793
     65 C22        -2.4980   -2.1200   -1.9120 c         1 MOL      0.400062
     66 N7         -3.3100   -2.2720   -2.9500 n         1 MOL     -0.696705
     67 O11        -2.4160   -3.0790   -1.0920 o         1 MOL     -0.478822
     68 H28         0.3480   -1.6870   -2.1530 hn        1 MOL      0.115007
     69 H29        -1.5880   -0.2180   -3.7430 h1        1 MOL      0.114062
     70 H30        -2.7270   -0.0460   -1.5370 hc        1 MOL      0.138752
     71 H31        -1.3570   -0.7970   -0.7470 hc        1 MOL      0.138752
     72 H32        -3.5060   -1.5090   -3.5840 hn        1 MOL      0.376503
     73 H33        -3.8650   -3.0960   -2.7920 hn        1 MOL      0.376503
     74 N8          0.6400    1.5280   -2.3910 n         1 MOL     -0.373108
     75 C23         1.2640    2.8880   -2.4500 c3        1 MOL     -0.238240
     76 C24         0.9120    3.6790   -1.1460 c         1 MOL      0.673287
     77 O12         0.8270    3.1010   -0.0760 o         1 MOL     -0.541826
     78 H34         1.2880    0.7670   -2.5220 hn        1 MOL      0.353007
     79 H35         1.0100    3.3540   -3.4120 h1        1 MOL      0.130771
     80 H36         2.3500    2.7710   -2.3500 h1        1 MOL      0.130771
     81 N9          0.7030    4.9790   -1.1830 n         1 MOL     -0.600841
     82 C25         0.1550    5.8990   -0.1830 c3        1 MOL      0.255755
     83 C26        -1.1500    5.4970    0.5440 c         1 MOL      0.462337
     84 O13        -2.1600    6.1620    0.4050 o         1 MOL     -0.561856
     85 C27         1.2300    6.4090    0.7100 c3        1 MOL     -0.242591
     86 C28         2.3650    7.0200   -0.0260 ca        1 MOL      0.110053
     87 C29         2.2060    8.3270   -0.6470 ca        1 MOL     -0.170186
     88 C30         3.6170    6.3900   -0.0970 ca        1 MOL     -0.170186
     89 C31         3.3650    8.9120   -1.2770 ca        1 MOL     -0.291789
     90 C32         4.7460    6.9720   -0.6910 ca        1 MOL     -0.291789
     91 C33         4.6140    8.2390   -1.3280 ca        1 MOL      0.363372
     92 O14         5.6240    8.7890   -2.0310 oh        1 MOL     -0.499876
     93 H37         0.9670    5.4110   -2.0620 hn        1 MOL      0.303816
     94 H38        -0.1400    6.8060   -0.6970 h1        1 MOL      0.039589
     95 H39         1.5730    5.6500    1.4190 hc        1 MOL      0.084973
     96 H40         0.7420    7.2030    1.2780 hc        1 MOL      0.084973
     97 H41         1.3010    8.9080   -0.6790 ha        1 MOL      0.157229
     98 H42         3.7130    5.4480    0.4220 ha        1 MOL      0.157229
     99 H43         3.2150    9.9020   -1.6740 ha        1 MOL      0.158921
    100 H44         5.7090    6.4910   -0.7750 ha        1 MOL      0.158921
    101 H45         6.4150    8.2600   -1.9190 ho        1 MOL      0.379101
    102 N10        -1.2460    4.2780    1.0910 n         1 MOL     -0.339151
    103 C34        -2.4050    3.4660    1.5320 c3        1 MOL      0.002421
    104 C35        -3.4420    3.0240    0.4050 c         1 MOL      0.649384
    105 O15        -3.9660    1.8920    0.4230 o         1 MOL     -0.652227
    106 C36        -3.1640    4.0610    2.6770 c3        1 MOL      0.268905
    107 C37        -2.2870    4.3890    3.9240 c3        1 MOL     -0.131559
    108 C38        -4.3140    3.1500    3.1110 c3        1 MOL     -0.413712
    109 C39        -1.2280    3.4530    4.5060 c3        1 MOL     -0.156412
    110 H46        -0.4450    3.6620    1.0970 hn        1 MOL      0.255679
    111 H47        -2.0420    2.5060    1.9040 h1        1 MOL      0.067960
    112 H48        -3.6720    4.9810    2.3890 hc        1 MOL     -0.043039
    113 H49        -2.9110    4.5250    4.8050 hc        1 MOL      0.029222
    114 H50        -1.7730    5.3160    3.6730 hc        1 MOL      0.029222
    115 H51        -4.0000    2.1130    3.2220 hc        1 MOL      0.108479
    116 H52        -4.6870    3.6140    4.0260 hc        1 MOL      0.108479
    117 H53        -5.1150    3.2170    2.3700 hc        1 MOL      0.108479
    118 H54        -1.6290    2.4500    4.4030 hc        1 MOL      0.057943
    119 H55        -0.2800    3.6450    4.0200 hc        1 MOL      0.057943
    120 H56        -1.0150    3.6020    5.5640 hc        1 MOL      0.057943
    121 N11        -3.6730    3.9020   -0.5400 n         1 MOL     -0.566477
    122 C40        -4.3190    3.5280   -1.8030 c3        1 MOL     -0.030963
    123 C41        -5.8510    3.2650   -1.6750 c         1 MOL      0.346754
    124 O16        -6.3630    2.6580   -2.5750 o         1 MOL     -0.507419
    125 C42        -4.0520    4.6790   -2.7630 c3        1 MOL      0.229815
    126 O17        -2.6570    4.8250   -2.8850 oh        1 MOL     -0.583598
    127 H57        -3.2900    4.8170   -0.4040 hn        1 MOL      0.374244
    128 H58        -3.9110    2.5930   -2.1920 h1        1 MOL      0.112885
    129 H59        -4.4260    5.5900   -2.2820 h1        1 MOL      0.032651
    130 H60        -4.4780    4.5430   -3.7570 h1        1 MOL      0.032651
    131 H61        -2.3020    3.9330   -2.9350 ho        1 MOL      0.359181
    132 N12        -6.5650    3.5710   -0.6450 n         1 MOL     -0.262904
    133 C43        -7.9600    3.1630   -0.4120 c3        1 MOL      0.069820
    134 C44        -8.1880    1.6060   -0.4510 c         1 MOL      0.622804
    135 O18        -9.3500    1.2600   -0.5180 o         1 MOL     -0.554675
    136 C45        -8.9160    3.9540   -1.4160 c3        1 MOL     -0.367618
    137 H62        -6.1740    4.1530    0.0910 hn        1 MOL      0.248970
    138 H63        -8.1120    3.4110    0.6360 h1        1 MOL      0.061196
    139 H64        -9.9490    3.6130   -1.2830 hc        1 MOL      0.111394
    140 H65        -8.8510    5.0250   -1.2080 hc        1 MOL      0.111394
    141 H66        -8.6670    3.7950   -2.4630 hc        1 MOL      0.111394
    142 N13        -7.1310    0.8270   -0.3190 n         1 MOL     -0.617058
    143 C46        -7.1570   -0.5760   -0.6440 c3        1 MOL      0.481575
    144 C47        -6.9530   -1.3300    0.6250 c         1 MOL      0.321332
    145 O19        -6.3300   -0.8990    1.5490 o         1 MOL     -0.419944
    146 C48        -5.9820   -0.9500   -1.5560 c3        1 MOL     -0.176379
    147 H67        -6.2140    1.2050   -0.1440 hn        1 MOL      0.287165
    148 H68        -8.1090   -0.8980   -1.0830 h1        1 MOL     -0.029972
    149 H69        -4.9950   -0.7170   -1.1540 hc        1 MOL      0.041037
    150 H70        -6.0130   -2.0220   -1.7900 hc        1 MOL      0.041037
    151 H71        -6.0900   -0.3620   -2.4560 hc        1 MOL      0.041037
    152 N14        -7.3770   -2.5890    0.7480 n         1 MOL     -0.478097
    153 C49        -7.0350   -3.5870    1.8200 c3        1 MOL      0.045467
    154 C50        -7.2150   -3.0690    3.2350 c         1 MOL      0.347223
    155 O20        -6.4550   -3.3530    4.1220 o         1 MOL     -0.467769
    156 C51        -5.6580   -4.1450    1.6160 c3        1 MOL      0.459396
    157 C52        -5.4950   -4.9450    0.3460 c3        1 MOL     -0.247625
    158 C53        -4.4780   -6.1010    0.5180 c         1 MOL      0.650517
    159 O21        -4.8920   -7.3240    0.4080 o         1 MOL     -0.693600
    160 O22        -3.2880   -5.8660    0.7840 o         1 MOL     -0.693600
    161 H72        -7.9380   -2.9620    0.0030 hn        1 MOL      0.262420
    162 H73        -7.7350   -4.4240    1.7940 h1        1 MOL      0.044040
    163 H74        -5.4050   -4.7460    2.4930 hc        1 MOL     -0.057035
    164 H75        -4.9170   -3.3480    1.6200 hc        1 MOL     -0.057035
    165 H76        -5.2090   -4.3360   -0.5120 hc        1 MOL     -0.012365
    166 H77        -6.4290   -5.4120    0.0430 hc        1 MOL     -0.012365
    167 N15        -8.2250   -2.1900    3.5340 n         1 MOL     -0.283514
    168 C54        -8.2960   -1.3330    4.7040 c3        1 MOL     -0.067082
    169 H78        -7.3880   -1.4510    5.2960 h1        1 MOL      0.063075
    170 H79        -8.3910   -0.2940    4.3880 h1        1 MOL      0.063075
    171 H80        -9.1610   -1.6100    5.3070 h1        1 MOL      0.063075
    172 H81        -8.9580   -2.0140    2.8610 hn        1 MOL      0.228029
    173 Ca1        -0.9760   -5.1030   -0.2990 Ca        1 MOL      1.739921
    174 O23        -0.5670   -6.3090    2.2360 oh        1 MOL     -0.797508
    175 H82         0.3390   -6.4890    2.4850 ho        1 MOL      0.387510
    176 H83        -1.0700   -7.0300    2.6400 ho        1 MOL      0.387510
    177 O24        -1.5660   -7.6730   -0.3240 oh        1 MOL     -0.797508
    178 H84        -1.6840   -8.5650   -0.6500 ho        1 MOL      0.387510
    179 H85        -2.4150   -7.4340    0.0360 ho        1 MOL      0.387510
    180 O25         0.2680   -4.8610   -2.6630 oh        1 MOL     -0.797508
    181 H86         1.1810   -4.5760   -2.7870 ho        1 MOL      0.387510
    182 H87         0.0150   -5.2290   -3.5080 ho        1 MOL      0.387510
    183 O26        -2.4670   -5.6550   -2.4660 oh        1 MOL     -0.797508
    184 H88        -2.4760   -6.3310   -3.1410 ho        1 MOL      0.387510
    185 H89        -3.3040   -5.1980   -2.5740 ho        1 MOL      0.387510
    186 O27        -1.6690   -2.9930    1.7040 oh        1 MOL     -0.797508
    187 H90        -2.1740   -2.4100    1.1270 ho        1 MOL      0.387510
    188 H91        -1.3490   -2.4110    2.3910 ho        1 MOL      0.387510
    189 O28         1.6010   -6.4140   -0.4570 oh        1 MOL     -0.797508
    190 H92         1.5300   -7.3300   -0.2240 ho        1 MOL      0.387510
    191 H93         2.4720   -6.1490   -0.1550 ho        1 MOL      0.387510
@<TRIPOS>BOND
     1    1    2 1   
     2    1    4 1   
     3    1    5 1   
     4    1    6 1   
     5    2    3 2   
     6    2    7 1   
     7    7    8 1   
     8    7   15 1   
     9    8    9 1   
    10    8   11 1   
    11    8   16 1   
    12    9   10 2   
    13    9   19 1   
    14   11   12 1   
    15   11   17 1   
    16   11   18 1   
    17   12   13 1   
    18   12   14 1   
    19   19   20 1   
    20   19   28 1   
    21   20   21 1   
    22   20   23 1   
    23   20   29 1   
    24   21   22 2   
    25   21   41 1   
    26   23   24 1   
    27   23   30 1   
    28   23   31 1   
    29   24   25 1   
    30   24   32 1   
    31   24   33 1   
    32   25   26 1   
    33   25   34 1   
    34   25   35 1   
    35   26   27 1   
    36   26   36 1   
    37   26   37 1   
    38   27   38 1   
    39   27   39 1   
    40   27   40 1   
    41   41   42 1   
    42   41   49 1   
    43   42   43 1   
    44   42   45 1   
    45   42   50 1   
    46   43   44 2   
    47   43   53 1   
    48   45   46 1   
    49   45   51 1   
    50   45   52 1   
    51   46   47 1   
    52   46   48 1   
    53   53   54 1   
    54   53   57 1   
    55   54   55 1   
    56   54   58 1   
    57   54   59 1   
    58   55   56 2   
    59   55   60 1   
    60   60   61 1   
    61   60   68 1   
    62   61   62 1   
    63   61   64 1   
    64   61   69 1   
    65   62   63 2   
    66   62   74 1   
    67   64   65 1   
    68   64   70 1   
    69   64   71 1   
    70   65   66 1   
    71   65   67 2   
    72   66   72 1   
    73   66   73 1   
    74   74   75 1   
    75   74   78 1   
    76   75   76 1   
    77   75   79 1   
    78   75   80 1   
    79   76   77 2   
    80   76   81 1   
    81   81   82 1   
    82   81   93 1   
    83   82   83 1   
    84   82   85 1   
    85   82   94 1   
    86   83   84 2   
    87   83  102 1   
    88   85   86 1   
    89   85   95 1   
    90   85   96 1   
    91   86   87 ar  
    92   86   88 ar  
    93   87   89 ar  
    94   87   97 1   
    95   88   90 ar  
    96   88   98 1   
    97   89   91 ar  
    98   89   99 1   
    99   90   91 ar  
   100   90  100 1   
   101   91   92 1   
   102   92  101 1   
   103  102  103 1   
   104  102  110 1   
   105  103  104 1   
   106  103  106 1   
   107  103  111 1   
   108  104  105 2   
   109  104  121 1   
   110  106  107 1   
   111  106  108 1   
   112  106  112 1   
   113  107  109 1   
   114  107  113 1   
   115  107  114 1   
   116  108  115 1   
   117  108  116 1   
   118  108  117 1   
   119  109  118 1   
   120  109  119 1   
   121  109  120 1   
   122  121  122 1   
   123  121  127 1   
   124  122  123 1   
   125  122  125 1   
   126  122  128 1   
   127  123  124 2   
   128  123  132 1   
   129  125  126 1   
   130  125  129 1   
   131  125  130 1   
   132  126  131 1   
   133  132  133 1   
   134  132  137 1   
   135  133  134 1   
   136  133  136 1   
   137  133  138 1   
   138  134  135 2   
   139  134  142 1   
   140  136  139 1   
   141  136  140 1   
   142  136  141 1   
   143  142  143 1   
   144  142  147 1   
   145  143  144 1   
   146  143  146 1   
   147  143  148 1   
   148  144  145 2   
   149  144  152 1   
   150  146  149 1   
   151  146  150 1   
   152  146  151 1   
   153  152  153 1   
   154  152  161 1   
   155  153  154 1   
   156  153  156 1   
   157  153  162 1   
   158  154  155 2   
   159  154  167 1   
   160  156  157 1   
   161  156  163 1   
   162  156  164 1   
   163  157  158 1   
   164  157  165 1   
   165  157  166 1   
   166  158  159 1   
   167  158  160 1   
   168  167  168 1   
   169  167  172 1   
   170  168  169 1   
   171  168  170 1   
   172  168  171 1   
   173  174  175 1   
   174  174  176 1   
   175  177  178 1   
   176  177  179 1   
   177  180  181 1   
   178  180  182 1   
   179  183  184 1   
   180  183  185 1   
   181  186  187 1   
   182  186  188 1   
   183  189  190 1   
   184  189  191 1   
@<TRIPOS>SUBSTRUCTURE
     1 MOL         1 TEMP              0 ****  ****    0 ROOT
