@<TRIPOS>MOLECULE
MOL
  184   179     1     0     0
SMALL
resp


@<TRIPOS>ATOM
      1 C1         -2.2290   -5.3310   -2.8430 c3        1 MOL     -0.348406
      2 C2         -3.6820   -5.3430   -2.3550 c         1 MOL      0.689039
      3 O1         -4.0230   -6.2710   -1.5760 o         1 MOL     -0.584634
      4 H1         -1.5590   -5.2780   -1.9850 hc        1 MOL      0.088142
      5 H2         -2.0270   -6.2420   -3.4060 hc        1 MOL      0.088142
      6 H3         -2.0680   -4.4650   -3.4840 hc        1 MOL      0.088142
      7 N1         -4.5910   -4.4840   -2.8080 n         1 MOL     -0.653372
      8 C3         -6.0230   -4.5150   -2.5260 c3        1 MOL      0.290591
      9 C4         -6.4280   -3.8910   -1.1670 c         1 MOL      0.411007
     10 O2         -7.2610   -2.9470   -1.1590 o         1 MOL     -0.475391
     11 C5         -6.8690   -4.0750   -3.7800 c3        1 MOL     -0.208836
     12 C6         -8.3330   -4.2140   -3.4330 c         1 MOL      0.722692
     13 O3         -8.7070   -5.2980   -2.9030 o         1 MOL     -0.729001
     14 O4         -9.1650   -3.4050   -3.9840 o         1 MOL     -0.729001
     15 H4         -4.3190   -3.7330   -3.4210 hn        1 MOL      0.331587
     16 H5         -6.3540   -5.5510   -2.3490 h1        1 MOL      0.028111
     17 H6         -6.6500   -4.7110   -4.6380 hc        1 MOL      0.009166
     18 H7         -6.5310   -3.0830   -4.0860 hc        1 MOL      0.009166
     19 N2         -5.8420   -4.4420   -0.0980 n         1 MOL     -0.406347
     20 C7         -5.9380   -3.8300    1.2270 c3        1 MOL      0.364050
     21 C8         -4.4630   -3.9310    1.7670 c         1 MOL      0.344973
     22 O5         -3.7300   -4.9100    1.6370 o         1 MOL     -0.506506
     23 C9         -6.9920   -4.5630    1.9900 c3        1 MOL     -0.525115
     24 H8         -5.0990   -5.1310   -0.1430 hn        1 MOL      0.238218
     25 H9         -6.1730   -2.7840    1.0650 h1        1 MOL     -0.021343
     26 H10        -7.9320   -4.6420    1.4440 hc        1 MOL      0.137072
     27 H11        -6.7830   -5.6310    2.0720 hc        1 MOL      0.137072
     28 H12        -7.1370   -4.0690    2.9500 hc        1 MOL      0.137072
     29 N3         -4.0000   -2.9480    2.5340 n         1 MOL     -0.264146
     30 C10        -4.7660   -1.8440    3.1590 c3        1 MOL     -0.083310
     31 C11        -4.9910   -0.7180    2.1910 c         1 MOL      0.756832
     32 O6         -4.2690   -0.5870    1.2430 o         1 MOL     -0.583490
     33 C12        -3.9600   -1.2740    4.3420 c3        1 MOL     -0.288136
     34 C13        -2.5050   -0.9060    3.8600 c         1 MOL      0.735036
     35 O7         -2.1130    0.3080    3.9090 o         1 MOL     -0.713355
     36 O8         -1.6560   -1.7900    3.6100 o         1 MOL     -0.713355
     37 H13        -3.0350   -2.9580    2.8110 hn        1 MOL      0.246099
     38 H14        -5.7400   -2.1940    3.5060 h1        1 MOL      0.069609
     39 H15        -3.8270   -2.1520    4.9690 hc        1 MOL      0.087101
     40 H16        -4.4590   -0.5270    4.9690 hc        1 MOL      0.087101
     41 N4         -5.9070    0.1830    2.5210 n         1 MOL     -0.626277
     42 C14        -6.2870    1.3520    1.7870 c3        1 MOL      0.011653
     43 C15        -7.3240    1.2000    0.6830 c         1 MOL      0.726566
     44 O9         -7.9880    0.1810    0.5770 o         1 MOL     -0.550440
     45 H17        -6.4140    0.0270    3.3830 hn        1 MOL      0.327858
     46 H18        -5.4180    1.8610    1.3720 h1        1 MOL      0.077260
     47 H19        -6.7960    2.0100    2.5010 h1        1 MOL      0.077260
     48 N5         -7.5640    2.1850   -0.2140 n         1 MOL     -0.706629
     49 C16        -6.7300    3.4110   -0.3960 c3        1 MOL      0.030543
     50 C17        -6.0310    3.4700   -1.7530 c         1 MOL      0.709923
     51 O10        -6.6080    3.2140   -2.8310 o         1 MOL     -0.529270
     52 C18        -7.5740    4.6320   -0.2080 c3        1 MOL     -0.356725
     53 C19        -8.4920    4.7900    1.0450 c         1 MOL      0.761857
     54 N6         -9.7800    4.5010    0.9600 n         1 MOL     -0.855124
     55 O11        -8.1120    5.3620    2.0640 o         1 MOL     -0.572978
     56 H20        -8.2090    1.8930   -0.9320 hn        1 MOL      0.385162
     57 H21        -5.9220    3.4630    0.3330 h1        1 MOL      0.047698
     58 H22        -8.2250    4.7190   -1.0680 hc        1 MOL      0.094777
     59 H23        -6.8420    5.4310   -0.2850 hc        1 MOL      0.094777
     60 H24       -10.1410    4.3000    0.0360 hn        1 MOL      0.391468
     61 H25       -10.3160    4.4300    1.8020 hn        1 MOL      0.391468
     62 N7         -4.7390    3.9320   -1.8000 n         1 MOL     -0.521941
     63 C20        -4.0500    4.0670   -3.0680 c3        1 MOL     -0.055913
     64 C21        -2.5730    4.5770   -3.1140 c         1 MOL      0.500346
     65 O12        -2.1460    5.0880   -4.1410 o         1 MOL     -0.552212
     66 H26        -4.3780    4.2780   -0.9210 hn        1 MOL      0.319118
     67 H27        -4.6290    4.6570   -3.7820 h1        1 MOL      0.095890
     68 H28        -3.9310    3.0490   -3.4390 h1        1 MOL      0.095890
     69 N8         -1.8260    4.5560   -2.0000 n         1 MOL     -0.224740
     70 C22        -0.4600    5.1640   -1.8620 c3        1 MOL     -0.070297
     71 C23         0.5130    4.0940   -1.4030 c         1 MOL      0.577881
     72 O13         0.1180    2.9770   -0.9720 o         1 MOL     -0.622780
     73 C24        -0.5650    6.2710   -0.7170 c3        1 MOL      0.456975
     74 C25        -1.1830    7.4790   -1.2980 c3        1 MOL     -0.405919
     75 O14        -1.2980    5.6790    0.3390 oh        1 MOL     -0.646841
     76 H29        -2.2000    4.1350   -1.1630 hn        1 MOL      0.182677
     77 H30        -0.0870    5.5610   -2.8040 h1        1 MOL      0.087124
     78 H31         0.3890    6.4860   -0.2310 h1        1 MOL     -0.024277
     79 H32        -0.6530    5.3010    0.9310 ho        1 MOL      0.413869
     80 H33        -0.4380    7.9100   -1.9630 hc        1 MOL      0.104409
     81 H34        -2.1350    7.3590   -1.8220 hc        1 MOL      0.104409
     82 H35        -1.3320    8.1230   -0.4370 hc        1 MOL      0.104409
     83 N9          1.8220    4.3690   -1.5330 n         1 MOL     -0.438352
     84 C26         2.9280    3.3910   -1.3240 c3        1 MOL     -0.187629
     85 C27         3.7530    3.6900   -0.0760 c         1 MOL      0.517785
     86 O15         4.2640    4.7990    0.1410 o         1 MOL     -0.555231
     87 C28         3.8010    3.4590   -2.5980 c3        1 MOL      0.179684
     88 C29         5.1450    2.8180   -2.4880 c3        1 MOL      0.135291
     89 C30         2.9720    2.8250   -3.7240 c3        1 MOL     -0.499632
     90 C31         5.8870    2.9050   -3.8300 c3        1 MOL     -0.159028
     91 H36         2.0770    5.2900   -1.8660 hn        1 MOL      0.250915
     92 H37         2.5190    2.3780   -1.3150 h1        1 MOL      0.332089
     93 H38         4.0410    4.5120   -2.7530 hc        1 MOL      0.013289
     94 H39         5.1020    1.7850   -2.1300 hc        1 MOL     -0.025166
     95 H40         5.7840    3.2830   -1.7410 hc        1 MOL     -0.025166
     96 H41         1.9250    3.0700   -3.5800 hc        1 MOL      0.126722
     97 H42         3.3730    3.1970   -4.6700 hc        1 MOL      0.126722
     98 H43         2.9270    1.7380   -3.6490 hc        1 MOL      0.126722
     99 H44         5.7660    3.8520   -4.3610 hc        1 MOL      0.022524
    100 H45         6.9490    2.8260   -3.6050 hc        1 MOL      0.022524
    101 H46         5.6220    2.0570   -4.4670 hc        1 MOL      0.022524
    102 N10         3.9420    2.6380    0.7850 n         1 MOL     -0.289718
    103 C32         4.7460    2.6960    2.0230 c3        1 MOL      0.032060
    104 C33         5.7130    1.5140    2.2570 c         1 MOL      0.595991
    105 O16         6.4990    1.5000    3.2140 o         1 MOL     -0.554396
    106 C34         3.8190    2.8660    3.2490 c3        1 MOL     -0.081530
    107 C35         2.6180    1.8520    3.3500 c         1 MOL      0.769458
    108 O17         1.4850    2.2880    3.1320 o         1 MOL     -0.782068
    109 O18         2.8660    0.7410    3.8660 o         1 MOL     -0.782068
    110 H47         3.5390    1.7310    0.6120 hn        1 MOL      0.136334
    111 H48         5.3010    3.6310    2.0030 h1        1 MOL      0.071221
    112 H49         3.3270    3.8290    3.1470 hc        1 MOL      0.014454
    113 H50         4.4010    2.8560    4.1650 hc        1 MOL      0.014454
    114 N11         5.8930    0.6300    1.2260 n         1 MOL     -0.764215
    115 C36         6.9530   -0.3740    0.9500 c3        1 MOL      0.670428
    116 C37         6.4310   -1.7130    0.3740 c         1 MOL      0.109135
    117 O19         6.8480   -2.1440   -0.7280 o         1 MOL     -0.456598
    118 C38         8.0290    0.3930    0.0340 c3        1 MOL     -0.410614
    119 C39         9.3240   -0.2760   -0.1480 ca        1 MOL      0.148107
    120 C40         9.7700   -1.3780    0.5890 ca        1 MOL     -0.167231
    121 C41        10.1850    0.2820   -1.1560 ca        1 MOL     -0.167231
    122 C42        11.0590   -1.8350    0.3670 ca        1 MOL     -0.110910
    123 C43        11.4900   -0.2400   -1.3810 ca        1 MOL     -0.110910
    124 C44        11.9390   -1.3060   -0.5780 ca        1 MOL     -0.141329
    125 H51         5.1350    0.5980    0.5530 hn        1 MOL      0.279955
    126 H52         7.4680   -0.6140    1.8750 h1        1 MOL     -0.040430
    127 H53         8.2570    1.3150    0.5630 hc        1 MOL      0.135111
    128 H54         7.6050    0.6630   -0.9330 hc        1 MOL      0.135111
    129 H55         9.1710   -1.7910    1.3880 ha        1 MOL      0.116736
    130 H56         9.7860    1.0630   -1.7880 ha        1 MOL      0.116736
    131 H57        11.3920   -2.6150    1.0230 ha        1 MOL      0.098744
    132 H58        12.1120    0.2280   -2.1370 ha        1 MOL      0.098744
    133 H59        12.9590   -1.6730   -0.5040 ha        1 MOL      0.099707
    134 N12         5.4820   -2.3860    1.0080 n         1 MOL     -0.032156
    135 C45         4.9510   -3.6910    0.6000 c3        1 MOL     -0.037597
    136 C46         4.2920   -3.7990   -0.7840 c         1 MOL      0.192232
    137 O20         4.2100   -4.8810   -1.3260 o         1 MOL     -0.464073
    138 C47         4.0070   -4.1460    1.7360 c3        1 MOL      0.048797
    139 C48         4.4480   -3.2660    2.9630 c3        1 MOL     -0.194678
    140 C49         4.8640   -1.9700    2.2530 c3        1 MOL      0.054080
    141 H60         5.7950   -4.3760    0.6470 h1        1 MOL      0.095675
    142 H61         2.9720   -3.8930    1.5170 hc        1 MOL      0.037011
    143 H62         4.0100   -5.2250    1.9070 hc        1 MOL      0.037011
    144 H63         3.6270   -3.0390    3.6450 hc        1 MOL      0.046206
    145 H64         5.3140   -3.7210    3.4380 hc        1 MOL      0.046206
    146 H65         3.9810   -1.3390    2.1300 h1        1 MOL      0.060656
    147 H66         5.6170   -1.4850    2.8830 h1        1 MOL      0.060656
    148 N13         3.8060   -2.6690   -1.3430 n         1 MOL     -0.037988
    149 C50         3.2770   -2.4700   -2.7270 c3        1 MOL     -0.142811
    150 C51         4.4380   -2.6790   -3.7490 c         1 MOL      0.468657
    151 O21         4.2920   -3.3520   -4.7710 o         1 MOL     -0.565441
    152 C52         2.6310   -1.0630   -2.6670 c3        1 MOL      0.059489
    153 C53         1.7060   -0.7470   -1.5080 c3        1 MOL     -0.141952
    154 C54         2.4220   -0.2420   -0.2220 c         1 MOL      0.231708
    155 O22         1.7150    0.0060    0.8260 o         1 MOL     -0.471136
    156 O23         3.6440    0.0650   -0.3100 o         1 MOL     -0.471136
    157 H67         3.7800   -1.8380   -0.7570 hn        1 MOL      0.244763
    158 H68         2.5320   -3.2370   -2.9420 h1        1 MOL      0.104682
    159 H69         2.0740   -0.9400   -3.6000 hc        1 MOL     -0.012042
    160 H70         3.4230   -0.3150   -2.7050 hc        1 MOL     -0.012042
    161 H71         1.0350   -1.5770   -1.2780 hc        1 MOL      0.060082
    162 H72         1.1640    0.1350   -1.8740 hc        1 MOL      0.060082
    163 N14         5.6020   -2.1200   -3.4750 n         1 MOL     -0.093881
    164 C55         6.8500   -2.2660   -4.2440 c3        1 MOL     -0.324421
    165 H73         7.6970   -2.2880   -3.5600 h1        1 MOL      0.120816
    166 H74         6.8180   -3.1940   -4.8150 h1        1 MOL      0.120816
    167 H75         6.9570   -1.4220   -4.9260 h1        1 MOL      0.120816
    168 H76         5.5790   -1.5480   -2.6450 hn        1 MOL      0.180579
    169 Ca1         0.3720   -0.1700    2.9840 Ca        1 MOL      1.729220
    170 O24         0.5330    0.6830    5.6480 oh        1 MOL     -0.803127
    171 H77         1.4420    0.8050    5.3690 ho        1 MOL      0.395574
    172 H78         0.3510    1.4520    6.1890 ho        1 MOL      0.395574
    173 O25        -0.7250    1.8570    1.5110 oh        1 MOL     -0.803127
    174 H79        -1.3970    2.5350    1.5950 ho        1 MOL      0.395574
    175 H80        -0.1460    2.1770    0.8210 ho        1 MOL      0.395574
    176 O26         1.3430   -2.1310    4.5820 oh        1 MOL     -0.803127
    177 H81         1.5380   -1.8380    5.4800 ho        1 MOL      0.395574
    178 H82         1.3800   -3.0800    4.6310 ho        1 MOL      0.395574
    179 O27        -1.6500   -0.8230    0.5790 oh        1 MOL     -0.803127
    180 H83        -2.5940   -0.8340    0.7490 ho        1 MOL      0.395574
    181 H84        -1.5550   -0.3360   -0.2390 ho        1 MOL      0.395574
    182 O28         0.4590   -2.7460    1.5710 oh        1 MOL     -0.803127
    183 H85        -0.3980   -2.6750    1.1420 ho        1 MOL      0.395574
    184 H86         0.6590   -3.6830    1.5430 ho        1 MOL      0.395574
@<TRIPOS>BOND
     1    1    2 1   
     2    1    4 1   
     3    1    5 1   
     4    1    6 1   
     5    2    3 2   
     6    2    7 1   
     7    7    8 1   
     8    7   15 1   
     9    8    9 1   
    10    8   11 1   
    11    8   16 1   
    12    9   10 2   
    13    9   19 1   
    14   11   12 1   
    15   11   17 1   
    16   11   18 1   
    17   12   13 1   
    18   12   14 1   
    19   19   20 1   
    20   19   24 1   
    21   20   21 1   
    22   20   23 1   
    23   20   25 1   
    24   21   22 2   
    25   21   29 1   
    26   23   26 1   
    27   23   27 1   
    28   23   28 1   
    29   29   30 1   
    30   29   37 1   
    31   30   31 1   
    32   30   33 1   
    33   30   38 1   
    34   31   32 2   
    35   31   41 1   
    36   33   34 1   
    37   33   39 1   
    38   33   40 1   
    39   34   35 1   
    40   34   36 1   
    41   41   42 1   
    42   41   45 1   
    43   42   43 1   
    44   42   46 1   
    45   42   47 1   
    46   43   44 2   
    47   43   48 1   
    48   48   49 1   
    49   48   56 1   
    50   49   50 1   
    51   49   52 1   
    52   49   57 1   
    53   50   51 2   
    54   50   62 1   
    55   52   53 1   
    56   52   58 1   
    57   52   59 1   
    58   53   54 1   
    59   53   55 2   
    60   54   60 1   
    61   54   61 1   
    62   62   63 1   
    63   62   66 1   
    64   63   64 1   
    65   63   67 1   
    66   63   68 1   
    67   64   65 2   
    68   64   69 1   
    69   69   70 1   
    70   69   76 1   
    71   70   71 1   
    72   70   73 1   
    73   70   77 1   
    74   71   72 2   
    75   71   83 1   
    76   73   74 1   
    77   73   75 1   
    78   73   78 1   
    79   74   80 1   
    80   74   81 1   
    81   74   82 1   
    82   75   79 1   
    83   83   84 1   
    84   83   91 1   
    85   84   85 1   
    86   84   87 1   
    87   84   92 1   
    88   85   86 2   
    89   85  102 1   
    90   87   88 1   
    91   87   89 1   
    92   87   93 1   
    93   88   90 1   
    94   88   94 1   
    95   88   95 1   
    96   89   96 1   
    97   89   97 1   
    98   89   98 1   
    99   90   99 1   
   100   90  100 1   
   101   90  101 1   
   102  102  103 1   
   103  102  110 1   
   104  103  104 1   
   105  103  106 1   
   106  103  111 1   
   107  104  105 2   
   108  104  114 1   
   109  106  107 1   
   110  106  112 1   
   111  106  113 1   
   112  107  108 1   
   113  107  109 1   
   114  114  115 1   
   115  114  125 1   
   116  115  116 1   
   117  115  118 1   
   118  115  126 1   
   119  116  117 2   
   120  116  134 1   
   121  118  119 1   
   122  118  127 1   
   123  118  128 1   
   124  119  120 ar  
   125  119  121 ar  
   126  120  122 ar  
   127  120  129 1   
   128  121  123 ar  
   129  121  130 1   
   130  122  124 ar  
   131  122  131 1   
   132  123  124 ar  
   133  123  132 1   
   134  124  133 1   
   135  134  135 1   
   136  134  140 1   
   137  135  136 1   
   138  135  138 1   
   139  135  141 1   
   140  136  137 2   
   141  136  148 1   
   142  138  139 1   
   143  138  142 1   
   144  138  143 1   
   145  139  140 1   
   146  139  144 1   
   147  139  145 1   
   148  140  146 1   
   149  140  147 1   
   150  148  149 1   
   151  148  157 1   
   152  149  150 1   
   153  149  152 1   
   154  149  158 1   
   155  150  151 2   
   156  150  163 1   
   157  152  153 1   
   158  152  159 1   
   159  152  160 1   
   160  153  154 1   
   161  153  161 1   
   162  153  162 1   
   163  154  155 1   
   164  154  156 1   
   165  163  164 1   
   166  163  168 1   
   167  164  165 1   
   168  164  166 1   
   169  164  167 1   
   170  170  171 1   
   171  170  172 1   
   172  173  174 1   
   173  173  175 1   
   174  176  177 1   
   175  176  178 1   
   176  179  180 1   
   177  179  181 1   
   178  182  183 1   
   179  182  184 1   
@<TRIPOS>SUBSTRUCTURE
     1 MOL         1 TEMP              0 ****  ****    0 ROOT
