@<TRIPOS>MOLECULE
MOL
  186   183     1     0     0
SMALL
resp


@<TRIPOS>ATOM
      1 C1         -6.1210   -4.6660   -3.7300 c3        1 MOL     -0.568023
      2 C2         -6.2660   -3.7080   -2.5270 c         1 MOL      0.755726
      3 O1         -5.3320   -3.4320   -1.8280 o         1 MOL     -0.575341
      4 H1         -5.2140   -4.4210   -4.2810 hc        1 MOL      0.147326
      5 H2         -6.0620   -5.6930   -3.3720 hc        1 MOL      0.147326
      6 H3         -6.9850   -4.5580   -4.3860 hc        1 MOL      0.147326
      7 N1         -7.5180   -3.1530   -2.2220 n         1 MOL     -0.622599
      8 C3         -7.7380   -1.9790   -1.3610 c3        1 MOL      0.335724
      9 C4         -6.5240   -0.9770   -1.2720 c         1 MOL      0.246974
     10 O2         -5.9200   -0.7300   -0.2200 o         1 MOL     -0.496066
     11 C5         -8.3470   -2.2330    0.0190 c3        1 MOL     -0.243920
     12 C6         -7.6430   -3.4100    0.6070 c         1 MOL      0.738740
     13 O3         -6.3860   -3.3600    0.8730 o         1 MOL     -0.717104
     14 O4         -8.2330   -4.5280    0.7970 o         1 MOL     -0.717104
     15 H4         -8.2650   -3.5030   -2.8070 hn        1 MOL      0.316299
     16 H5         -8.4460   -1.3950   -1.9490 h1        1 MOL     -0.012022
     17 H6         -9.3950   -2.5220   -0.1230 hc        1 MOL      0.037883
     18 H7         -8.2690   -1.4060    0.7110 hc        1 MOL      0.037883
     19 N2         -6.1200   -0.4600   -2.4650 n         1 MOL     -0.198177
     20 C7         -5.3830    0.8280   -2.6040 c3        1 MOL      0.050652
     21 C8         -5.9960    2.0110   -1.8090 c         1 MOL      0.281802
     22 O5         -6.4970    2.9650   -2.4520 o         1 MOL     -0.574799
     23 C9         -3.8670    0.6090   -2.2990 c3        1 MOL      0.137763
     24 C10        -2.9240    1.8140   -2.2940 c3        1 MOL     -0.071377
     25 C11        -3.2330   -0.3720   -3.3550 c3        1 MOL     -0.285563
     26 C12        -2.7520    2.6960   -3.5470 c3        1 MOL     -0.433330
     27 H8         -6.6540   -0.6640   -3.2950 hn        1 MOL      0.187291
     28 H9         -5.3870    1.0690   -3.6710 h1        1 MOL      0.047139
     29 H10        -3.7580    0.1980   -1.3010 hc        1 MOL     -0.000594
     30 H11        -1.9480    1.5360   -1.9110 hc        1 MOL      0.149691
     31 H12        -3.3320    2.5260   -1.5680 hc        1 MOL      0.149691
     32 H13        -3.6110   -0.0360   -4.3150 hc        1 MOL      0.049272
     33 H14        -2.1400   -0.4310   -3.3090 hc        1 MOL      0.049272
     34 H15        -3.6580   -1.3710   -3.2280 hc        1 MOL      0.049272
     35 H16        -3.7250    3.1320   -3.7560 hc        1 MOL      0.100093
     36 H17        -2.0690    3.5260   -3.3750 hc        1 MOL      0.100093
     37 H18        -2.3880    2.0690   -4.3600 hc        1 MOL      0.100093
     38 N3         -6.1490    1.9580   -0.5340 n         1 MOL     -0.034785
     39 C13        -6.8990    2.9080    0.3350 c3        1 MOL      0.126435
     40 C14        -6.1820    4.2240    0.7120 c         1 MOL      0.518575
     41 O6         -6.6930    5.2910    0.4100 o         1 MOL     -0.542474
     42 C15        -7.5360    2.2650    1.5460 c3        1 MOL     -0.473958
     43 C16        -8.4510    3.2870    2.2440 c         1 MOL      0.734018
     44 O7         -9.6220    3.4670    1.8970 o         1 MOL     -0.714998
     45 O8         -7.9940    4.0050    3.2130 o         1 MOL     -0.714998
     46 H19        -5.8380    1.0790   -0.1370 hn        1 MOL      0.165393
     47 H20        -7.7110    3.2780   -0.2900 h1        1 MOL      0.056883
     48 H21        -6.7660    1.8890    2.2220 hc        1 MOL      0.143053
     49 H22        -8.1520    1.4860    1.0950 hc        1 MOL      0.143053
     50 N4         -4.9980    4.2630    1.3110 n         1 MOL     -0.507669
     51 C17        -4.0710    3.1680    1.4430 c3        1 MOL      0.257843
     52 C18        -3.1190    3.4940    2.5600 c         1 MOL      0.610147
     53 O9         -2.7470    4.5930    2.7720 o         1 MOL     -0.561288
     54 H23        -4.7560    5.1630    1.7010 hn        1 MOL      0.289747
     55 H24        -3.5490    2.9990    0.4960 h1        1 MOL     -0.093192
     56 H25        -4.6250    2.2700    1.7090 h1        1 MOL     -0.093192
     57 N5         -2.4520    2.5120    3.1820 n         1 MOL     -0.575574
     58 C19        -2.3400    1.0380    3.0130 c3        1 MOL      0.212746
     59 C20        -2.2070    0.6340    1.5310 c         1 MOL      0.553203
     60 O10        -3.0560   -0.0750    1.0370 o         1 MOL     -0.553846
     61 C21        -3.4950    0.3970    3.8330 c3        1 MOL     -0.254969
     62 C22        -3.5910   -1.1740    3.7620 c         1 MOL      0.701019
     63 O11        -2.6890   -1.8210    4.3340 o         1 MOL     -0.704315
     64 O12        -4.4090   -1.7000    2.9490 o         1 MOL     -0.704315
     65 H26        -1.8060    2.8340    3.8870 hn        1 MOL      0.267075
     66 H27        -1.4060    0.7850    3.5170 h1        1 MOL      0.066305
     67 H28        -4.4210    0.8180    3.4390 hc        1 MOL      0.065417
     68 H29        -3.4160    0.6040    4.9010 hc        1 MOL      0.065417
     69 N6         -1.2880    1.1520    0.7380 n         1 MOL     -0.138391
     70 C23        -0.0510    1.7770    1.2040 c3        1 MOL     -0.425283
     71 C24         0.6060    2.7090    0.1030 c         1 MOL      0.728762
     72 O13         0.1020    2.8950   -0.9580 o         1 MOL     -0.511266
     73 H30        -1.3860    0.9110   -0.2320 hn        1 MOL      0.068568
     74 H31         0.6150    0.9920    1.5690 h1        1 MOL      0.130364
     75 H32        -0.1670    2.3490    2.1170 h1        1 MOL      0.130364
     76 N7          1.7270    3.3580    0.4040 n         1 MOL     -0.540980
     77 C25         2.2450    4.5270   -0.2110 c3        1 MOL     -0.154763
     78 C26         2.7980    4.3610   -1.5790 c         1 MOL      0.350387
     79 O14         3.1540    5.3800   -2.2000 o         1 MOL     -0.525632
     80 C27         3.1930    5.1880    0.7500 c3        1 MOL      0.104580
     81 C28         2.6890    5.4850    2.1640 c3        1 MOL     -0.569157
     82 C29         1.2760    6.1980    2.0550 c         1 MOL      0.715133
     83 N8          0.2260    5.6350    2.6160 n         1 MOL     -0.766602
     84 O15         1.0380    7.2070    1.4410 o         1 MOL     -0.556655
     85 H33         2.1650    3.1780    1.3000 hn        1 MOL      0.303394
     86 H34         1.4460    5.2570   -0.3200 h1        1 MOL      0.200657
     87 H35         3.5680    6.1030    0.2770 hc        1 MOL      0.056867
     88 H36         4.0480    4.5230    0.8120 hc        1 MOL      0.056867
     89 H37         3.4540    6.0500    2.7010 hc        1 MOL      0.157371
     90 H38         2.6360    4.5780    2.7510 hc        1 MOL      0.157371
     91 H39         0.3660    4.8210    3.1990 hn        1 MOL      0.368724
     92 H40        -0.6480    6.0200    2.3020 hn        1 MOL      0.368724
     93 N9          2.8770    3.1250   -2.1110 n         1 MOL      0.083034
     94 C30         3.1930    2.7430   -3.5310 c3        1 MOL     -0.431005
     95 C31         4.6080    2.1400   -3.7140 c         1 MOL      0.708957
     96 O16         5.1070    2.2530   -4.7810 o         1 MOL     -0.553492
     97 C32         2.1550    1.7890   -4.2160 c3        1 MOL      0.292214
     98 C33         0.8510    2.5550   -4.2000 c3        1 MOL     -0.312140
     99 C34         2.0640    0.4110   -3.5360 c3        1 MOL     -0.312140
    100 H41         2.7750    2.3410   -1.5020 hn        1 MOL      0.144652
    101 H42         3.1730    3.6460   -4.1540 h1        1 MOL      0.152337
    102 H43         2.3360    1.6130   -5.2830 hc        1 MOL     -0.006515
    103 H44         0.3930    2.5470   -3.2160 hc        1 MOL      0.081306
    104 H45         0.8880    3.5890   -4.5700 hc        1 MOL      0.081306
    105 H46         0.1590    1.9870   -4.8180 hc        1 MOL      0.081306
    106 H47         1.2270   -0.1030   -4.0120 hc        1 MOL      0.081306
    107 H48         2.9450   -0.2050   -3.6700 hc        1 MOL      0.081306
    108 H49         1.8470    0.5410   -2.4720 hc        1 MOL      0.081306
    109 N10         5.1730    1.5690   -2.6290 n         1 MOL     -0.613972
    110 C35         6.5880    1.2600   -2.4180 c3        1 MOL      0.252894
    111 C36         6.9130    0.0340   -1.5230 c         1 MOL      0.407259
    112 O17         7.9770   -0.5080   -1.7250 o         1 MOL     -0.530523
    113 C37         7.4370    2.4540   -1.8270 c3        1 MOL     -0.209489
    114 C38         6.7200    3.2420   -0.7730 c         1 MOL      0.653205
    115 N11         6.7810    4.5450   -0.8220 n         1 MOL     -0.786539
    116 O18         5.9500    2.6950    0.0460 o         1 MOL     -0.562729
    117 H50         4.6400    1.4180   -1.7940 hn        1 MOL      0.316678
    118 H51         7.1210    1.0990   -3.3620 h1        1 MOL      0.040678
    119 H52         7.6940    3.1680   -2.6050 hc        1 MOL      0.073829
    120 H53         8.4230    2.1390   -1.4770 hc        1 MOL      0.073829
    121 H54         7.2640    5.0020   -1.5860 hn        1 MOL      0.363698
    122 H55         6.5430    5.1650   -0.0600 hn        1 MOL      0.363698
    123 N12         6.0810   -0.3340   -0.5230 n         1 MOL     -0.388803
    124 C39         6.2900   -1.5770    0.2790 c3        1 MOL      0.185794
    125 C40         5.0070   -2.2580    0.6300 c         1 MOL      0.541062
    126 O19         4.0320   -1.5800    0.9440 o         1 MOL     -0.495985
    127 C41         7.0620   -1.2860    1.5230 c3        1 MOL     -0.026899
    128 C42         8.4390   -0.7810    1.5340 ca        1 MOL     -0.002025
    129 C43         8.8100    0.5870    1.7020 ca        1 MOL     -0.117744
    130 C44         9.4830   -1.7080    1.1980 ca        1 MOL     -0.117744
    131 C45        10.1410    1.0570    1.7680 ca        1 MOL     -0.291846
    132 C46        10.8740   -1.2770    1.2070 ca        1 MOL     -0.291846
    133 C47        11.1230    0.0610    1.5210 ca        1 MOL      0.356452
    134 O20        12.4090    0.5260    1.5070 oh        1 MOL     -0.505548
    135 H56         5.2690    0.2400   -0.3250 hn        1 MOL      0.209794
    136 H57         6.9060   -2.3280   -0.2130 h1        1 MOL     -0.001119
    137 H58         7.2220   -2.2650    1.9840 hc        1 MOL      0.061631
    138 H59         6.4650   -0.7280    2.2560 hc        1 MOL      0.061631
    139 H60         7.9750    1.2600    1.7860 ha        1 MOL      0.118894
    140 H61         9.1520   -2.6620    0.8300 ha        1 MOL      0.118894
    141 H62        10.2280    2.1210    1.9290 ha        1 MOL      0.151245
    142 H63        11.6430   -1.9790    0.9210 ha        1 MOL      0.151245
    143 H64        13.0080   -0.1160    1.1160 ho        1 MOL      0.344245
    144 N13         5.0050   -3.6010    0.7400 n         1 MOL     -0.570894
    145 C48         3.9860   -4.5170    1.2980 c3        1 MOL     -0.058703
    146 C49         2.7310   -4.5960    0.4220 c         1 MOL      0.310933
    147 O21         1.8360   -5.3620    0.7450 o         1 MOL     -0.499632
    148 C50         3.5270   -4.2340    2.7300 c3        1 MOL      0.167601
    149 C51         4.5250   -4.1800    3.8540 c3        1 MOL     -0.333270
    150 C52         3.9180   -4.1140    5.2560 c         1 MOL      0.751859
    151 O22         3.5160   -3.0430    5.7170 o         1 MOL     -0.735388
    152 O23         3.7890   -5.1760    5.8910 o         1 MOL     -0.735388
    153 H65         5.8730   -4.0950    0.5880 hn        1 MOL      0.325404
    154 H66         4.3940   -5.5220    1.2910 h1        1 MOL      0.090342
    155 H67         2.6850   -4.8460    3.0410 hc        1 MOL      0.066824
    156 H68         3.1270   -3.2210    2.8030 hc        1 MOL      0.066824
    157 H69         5.1210   -3.2730    3.7640 hc        1 MOL      0.002961
    158 H70         5.1150   -5.0990    3.7870 hc        1 MOL      0.002961
    159 N14         2.6020   -3.9100   -0.7360 n         1 MOL      0.047928
    160 C53         1.3560   -3.8970   -1.5290 c3        1 MOL     -0.234614
    161 C54         1.4770   -4.6840   -2.8510 c         1 MOL      0.388201
    162 O24         0.5180   -4.8570   -3.5690 o         1 MOL     -0.509492
    163 C55         0.9720   -2.4330   -1.9210 c3        1 MOL     -0.008844
    164 C56         0.4410   -1.5080   -0.7850 c3        1 MOL      0.223730
    165 C57        -0.8150   -2.1390   -0.2080 c         1 MOL      0.540687
    166 O25        -1.8740   -2.1200   -0.8380 o         1 MOL     -0.703844
    167 O26        -0.8390   -2.6900    0.8790 o         1 MOL     -0.703844
    168 H71         3.3570   -3.2850   -0.9830 hn        1 MOL      0.062785
    169 H72         0.4770   -4.2440   -0.9950 h1        1 MOL      0.200168
    170 H73         0.2410   -2.4920   -2.7320 hc        1 MOL      0.011185
    171 H74         1.8400   -1.9730   -2.3960 hc        1 MOL      0.011185
    172 H75         0.1590   -0.5610   -1.2410 hc        1 MOL     -0.052712
    173 H76         1.2360   -1.3990   -0.0480 hc        1 MOL     -0.052712
    174 N15         2.6660   -5.1870   -3.1460 n         1 MOL     -0.161277
    175 C58         3.0250   -5.9000   -4.3430 c3        1 MOL     -0.065305
    176 H77         3.8420   -5.3800   -4.8430 h1        1 MOL      0.048225
    177 H78         3.3420   -6.9110   -4.0830 h1        1 MOL      0.048225
    178 H79         2.1640   -5.9490   -5.0100 h1        1 MOL      0.048225
    179 H80         3.2910   -5.1970   -2.3580 hn        1 MOL      0.144101
    180 Ca1        -3.9290   -2.7140    0.4730 Ca        1 MOL      1.739487
    181 O27        -3.6930   -4.4270    2.4730 oh        1 MOL     -0.828051
    182 H81        -3.0280   -5.1240    2.4630 ho        1 MOL      0.405282
    183 H82        -3.4230   -3.8520    3.1880 ho        1 MOL      0.405282
    184 O28        -3.5130   -5.3310   -0.4030 oh        1 MOL     -0.828051
    185 H83        -3.3770   -5.3900   -1.3480 ho        1 MOL      0.405282
    186 H84        -3.0460   -6.0970   -0.0480 ho        1 MOL      0.405282
@<TRIPOS>BOND
     1    1    2 1   
     2    1    4 1   
     3    1    5 1   
     4    1    6 1   
     5    2    3 2   
     6    2    7 1   
     7    7    8 1   
     8    7   15 1   
     9    8    9 1   
    10    8   11 1   
    11    8   16 1   
    12    9   10 2   
    13    9   19 1   
    14   11   12 1   
    15   11   17 1   
    16   11   18 1   
    17   12   13 1   
    18   12   14 1   
    19   19   20 1   
    20   19   27 1   
    21   20   21 1   
    22   20   23 1   
    23   20   28 1   
    24   21   22 2   
    25   21   38 1   
    26   23   24 1   
    27   23   25 1   
    28   23   29 1   
    29   24   26 1   
    30   24   30 1   
    31   24   31 1   
    32   25   32 1   
    33   25   33 1   
    34   25   34 1   
    35   26   35 1   
    36   26   36 1   
    37   26   37 1   
    38   38   39 1   
    39   38   46 1   
    40   39   40 1   
    41   39   42 1   
    42   39   47 1   
    43   40   41 2   
    44   40   50 1   
    45   42   43 1   
    46   42   48 1   
    47   42   49 1   
    48   43   44 1   
    49   43   45 1   
    50   50   51 1   
    51   50   54 1   
    52   51   52 1   
    53   51   55 1   
    54   51   56 1   
    55   52   53 2   
    56   52   57 1   
    57   57   58 1   
    58   57   65 1   
    59   58   59 1   
    60   58   61 1   
    61   58   66 1   
    62   59   60 2   
    63   59   69 1   
    64   61   62 1   
    65   61   67 1   
    66   61   68 1   
    67   62   63 1   
    68   62   64 1   
    69   69   70 1   
    70   69   73 1   
    71   70   71 1   
    72   70   74 1   
    73   70   75 1   
    74   71   72 2   
    75   71   76 1   
    76   76   77 1   
    77   76   85 1   
    78   77   78 1   
    79   77   80 1   
    80   77   86 1   
    81   78   79 2   
    82   78   93 1   
    83   80   81 1   
    84   80   87 1   
    85   80   88 1   
    86   81   82 1   
    87   81   89 1   
    88   81   90 1   
    89   82   83 1   
    90   82   84 2   
    91   83   91 1   
    92   83   92 1   
    93   93   94 1   
    94   93  100 1   
    95   94   95 1   
    96   94   97 1   
    97   94  101 1   
    98   95   96 2   
    99   95  109 1   
   100   97   98 1   
   101   97   99 1   
   102   97  102 1   
   103   98  103 1   
   104   98  104 1   
   105   98  105 1   
   106   99  106 1   
   107   99  107 1   
   108   99  108 1   
   109  109  110 1   
   110  109  117 1   
   111  110  111 1   
   112  110  113 1   
   113  110  118 1   
   114  111  112 2   
   115  111  123 1   
   116  113  114 1   
   117  113  119 1   
   118  113  120 1   
   119  114  115 1   
   120  114  116 2   
   121  115  121 1   
   122  115  122 1   
   123  123  124 1   
   124  123  135 1   
   125  124  125 1   
   126  124  127 1   
   127  124  136 1   
   128  125  126 2   
   129  125  144 1   
   130  127  128 1   
   131  127  137 1   
   132  127  138 1   
   133  128  129 ar  
   134  128  130 ar  
   135  129  131 ar  
   136  129  139 1   
   137  130  132 ar  
   138  130  140 1   
   139  131  133 ar  
   140  131  141 1   
   141  132  133 ar  
   142  132  142 1   
   143  133  134 1   
   144  134  143 1   
   145  144  145 1   
   146  144  153 1   
   147  145  146 1   
   148  145  148 1   
   149  145  154 1   
   150  146  147 2   
   151  146  159 1   
   152  148  149 1   
   153  148  155 1   
   154  148  156 1   
   155  149  150 1   
   156  149  157 1   
   157  149  158 1   
   158  150  151 1   
   159  150  152 1   
   160  159  160 1   
   161  159  168 1   
   162  160  161 1   
   163  160  163 1   
   164  160  169 1   
   165  161  162 2   
   166  161  174 1   
   167  163  164 1   
   168  163  170 1   
   169  163  171 1   
   170  164  165 1   
   171  164  172 1   
   172  164  173 1   
   173  165  166 1   
   174  165  167 1   
   175  174  175 1   
   176  174  179 1   
   177  175  176 1   
   178  175  177 1   
   179  175  178 1   
   180  181  182 1   
   181  181  183 1   
   182  184  185 1   
   183  184  186 1   
@<TRIPOS>SUBSTRUCTURE
     1 MOL         1 TEMP              0 ****  ****    0 ROOT
