@<TRIPOS>MOLECULE
MOL
  191   184     1     0     0
SMALL
resp


@<TRIPOS>ATOM
      1 C1         -6.5170   -1.6600    3.6750 c3        1 MOL     -0.481932
      2 C2         -6.2430   -1.5840    2.2320 c         1 MOL      0.650111
      3 O1         -5.4020   -0.8120    1.7790 o         1 MOL     -0.590708
      4 H1         -6.6390   -0.6530    4.0740 hc        1 MOL      0.121773
      5 H2         -7.4310   -2.2290    3.8420 hc        1 MOL      0.121773
      6 H3         -5.6850   -2.1520    4.1780 hc        1 MOL      0.121773
      7 N1         -7.0420   -2.3340    1.5320 n         1 MOL     -0.521962
      8 C3         -7.0950   -2.5020    0.0730 c3        1 MOL     -0.105331
      9 C4         -7.1690   -1.1910   -0.7480 c         1 MOL      0.568408
     10 O2         -6.6950   -1.1330   -1.8580 o         1 MOL     -0.469791
     11 C5         -6.0120   -3.5680   -0.4180 c3        1 MOL      0.031602
     12 C6         -6.6020   -4.5280   -1.4760 c         1 MOL      0.607749
     13 O3         -6.5820   -5.7660   -1.1730 o         1 MOL     -0.620937
     14 O4         -7.0810   -4.0360   -2.5430 o         1 MOL     -0.620937
     15 H4         -7.7110   -2.8780    2.0710 hn        1 MOL      0.329445
     16 H5         -8.0390   -3.0090   -0.1320 h1        1 MOL      0.090063
     17 H6         -5.6130   -4.2120    0.3630 hc        1 MOL      0.020391
     18 H7         -5.0660   -3.1150   -0.7010 hc        1 MOL      0.020391
     19 N2         -7.7360   -0.1580   -0.1820 n         1 MOL     -0.407647
     20 C7         -7.9640    1.0130   -0.9060 c3        1 MOL     -0.073323
     21 C8         -6.7230    1.8820   -1.2020 c         1 MOL      0.567891
     22 O5         -6.8460    2.9930   -1.7800 o         1 MOL     -0.569251
     23 C9         -9.0470    1.7920   -0.1190 c3        1 MOL      0.041761
     24 C10        -8.5280    2.3890    1.2170 c3        1 MOL     -0.080233
     25 C11        -9.7280    3.0710    1.9230 c3        1 MOL      0.173093
     26 C12        -9.3870    3.4170    3.4300 c3        1 MOL     -0.113623
     27 N3        -10.5140    4.1570    4.0030 n4        1 MOL     -0.012701
     28 H8         -8.2420   -0.3560    0.6730 hn        1 MOL      0.273075
     29 H9         -8.3800    0.7910   -1.8830 h1        1 MOL      0.119868
     30 H10        -9.8940    1.1250    0.0590 hc        1 MOL      0.013630
     31 H11        -9.4290    2.6070   -0.7390 hc        1 MOL      0.013630
     32 H12        -7.8250    3.1970    1.0430 hc        1 MOL      0.060475
     33 H13        -8.1790    1.5130    1.7750 hc        1 MOL      0.060475
     34 H14       -10.4260    2.2450    1.8580 hc        1 MOL     -0.035563
     35 H15       -10.1360    3.9260    1.3810 hc        1 MOL     -0.035563
     36 H16        -8.4860    4.0280    3.3810 hx        1 MOL      0.082245
     37 H17        -9.3150    2.4320    3.8760 hx        1 MOL      0.082245
     38 H18       -10.4160    4.5180    4.9360 hn        1 MOL      0.184388
     39 H19       -10.6460    4.9520    3.3930 hn        1 MOL      0.184388
     40 H20       -11.3620    3.6200    3.8870 hn        1 MOL      0.184388
     41 N4         -5.5270    1.5250   -0.6510 n         1 MOL     -0.421527
     42 C13        -4.3180    2.1960   -0.9610 c3        1 MOL      0.014493
     43 C14        -3.7150    1.7590   -2.3430 c         1 MOL      0.555954
     44 O6         -3.7910    0.5520   -2.7060 o         1 MOL     -0.463196
     45 C15        -3.3650    1.8150    0.1980 c3        1 MOL      0.000191
     46 C16        -2.1050    2.6690    0.1710 c         1 MOL      0.587635
     47 O7         -1.3640    2.6590   -0.8350 o         1 MOL     -0.680836
     48 O8         -1.8360    3.4910    1.0850 o         1 MOL     -0.680836
     49 H21        -5.5640    0.6550   -0.1520 hn        1 MOL      0.244921
     50 H22        -4.5910    3.2500   -0.9010 h1        1 MOL      0.058039
     51 H23        -3.1400    0.7720   -0.0230 hc        1 MOL     -0.009249
     52 H24        -3.8570    1.9660    1.1610 hc        1 MOL     -0.009249
     53 N5         -3.1600    2.6800   -3.0930 n         1 MOL     -0.453217
     54 C17        -2.6870    2.4180   -4.5220 c3        1 MOL     -0.256023
     55 C18        -1.5980    1.3780   -4.6700 c         1 MOL      0.416512
     56 O9         -1.3530    0.8020   -5.7480 o         1 MOL     -0.540394
     57 H25        -2.9880    3.5580   -2.6120 hn        1 MOL      0.330254
     58 H26        -2.3620    3.3540   -4.9830 h1        1 MOL      0.171951
     59 H27        -3.5250    1.9580   -5.0350 h1        1 MOL      0.171951
     60 N6         -0.8830    1.1050   -3.6000 n         1 MOL      0.036259
     61 C19         0.0920   -0.0130   -3.5660 c3        1 MOL     -0.193173
     62 C20        -0.5760   -1.4590   -3.3890 c         1 MOL      0.507709
     63 O10         0.1120   -2.5400   -3.3580 o         1 MOL     -0.557765
     64 C21         1.0870    0.3450   -2.4240 c3        1 MOL      0.020859
     65 C22         1.8480    1.6760   -2.5630 c         1 MOL      0.174488
     66 N7          2.8490    1.6360   -3.4410 n         1 MOL     -0.473979
     67 O11         1.4580    2.7660   -2.1390 o         1 MOL     -0.389619
     68 H28        -1.0620    1.6490   -2.7640 hn        1 MOL      0.092561
     69 H29         0.7020   -0.0250   -4.4670 h1        1 MOL      0.104579
     70 H30         1.8110   -0.4690   -2.3300 hc        1 MOL      0.088867
     71 H31         0.5080    0.4670   -1.5090 hc        1 MOL      0.088867
     72 H32         3.2570    0.7580   -3.7090 hn        1 MOL      0.290170
     73 H33         3.4560    2.4420   -3.3660 hn        1 MOL      0.290170
     74 N8         -1.8590   -1.4070   -3.2860 n         1 MOL     -0.234362
     75 C23        -2.6440   -2.6300   -3.0070 c3        1 MOL     -0.173008
     76 C24        -2.4520   -3.1910   -1.6400 c         1 MOL      0.383004
     77 O12        -2.8510   -4.3690   -1.4270 o         1 MOL     -0.498443
     78 H34        -2.3490   -0.5450   -3.4900 hn        1 MOL      0.249935
     79 H35        -2.3460   -3.4260   -3.6870 h1        1 MOL      0.149155
     80 H36        -3.7200   -2.5410   -3.1640 h1        1 MOL      0.149155
     81 N9         -1.9890   -2.4330   -0.7220 n         1 MOL     -0.144880
     82 C25        -1.5690   -2.7870    0.5960 c3        1 MOL      0.001869
     83 C26        -0.1640   -2.0100    0.8440 c         1 MOL      0.174115
     84 O13         0.0280   -0.8790    0.4230 o         1 MOL     -0.322857
     85 C27        -2.5730   -2.3230    1.6570 c3        1 MOL     -0.229486
     86 C28        -2.0290   -2.4230    3.0900 ca        1 MOL      0.088165
     87 C29        -1.8550   -3.6880    3.6300 ca        1 MOL     -0.194098
     88 C30        -1.8360   -1.2150    3.8660 ca        1 MOL     -0.194098
     89 C31        -1.4670   -3.7740    5.0120 ca        1 MOL     -0.196250
     90 C32        -1.4200   -1.3170    5.1660 ca        1 MOL     -0.196250
     91 C33        -1.2760   -2.5830    5.7500 ca        1 MOL      0.302762
     92 O14        -0.9240   -2.7240    7.0420 oh        1 MOL     -0.516767
     93 H37        -1.6990   -1.5360   -1.0840 hn        1 MOL      0.148801
     94 H38        -1.5330   -3.8660    0.6680 h1        1 MOL      0.074740
     95 H39        -3.5740   -2.7510    1.5700 hc        1 MOL      0.158005
     96 H40        -2.7370   -1.2540    1.4940 hc        1 MOL      0.158005
     97 H41        -2.0370   -4.6050    3.0800 ha        1 MOL      0.150760
     98 H42        -1.9470   -0.2520    3.3810 ha        1 MOL      0.150760
     99 H43        -1.0950   -4.6730    5.4950 ha        1 MOL      0.124056
    100 H44        -1.1240   -0.4720    5.7680 ha        1 MOL      0.124056
    101 H45        -0.5400   -1.9700    7.5040 ho        1 MOL      0.386066
    102 N10         0.8640   -2.7040    1.4250 n         1 MOL     -0.204102
    103 C34         2.3020   -2.2810    1.4580 c3        1 MOL      0.226475
    104 C35         2.8740   -2.3140    0.0790 c         1 MOL      0.064445
    105 O15         3.6370   -1.4800   -0.3270 o         1 MOL     -0.475492
    106 C36         3.1300   -3.2000    2.4450 c3        1 MOL      0.000784
    107 C37         2.4930   -3.1040    3.8680 c3        1 MOL     -0.144580
    108 C38         4.5460   -2.7310    2.5510 c3        1 MOL     -0.366880
    109 C39         2.4630   -1.8160    4.6710 c3        1 MOL     -0.141274
    110 H46         0.7500   -3.6640    1.6930 hn        1 MOL      0.227387
    111 H47         2.2310   -1.2410    1.7740 h1        1 MOL      0.046973
    112 H48         2.9480   -4.1930    2.0130 hc        1 MOL     -0.001244
    113 H49         3.0080   -3.8680    4.4600 hc        1 MOL      0.071535
    114 H50         1.4330   -3.3420    3.7690 hc        1 MOL      0.071535
    115 H51         4.9510   -3.1230    3.4730 hc        1 MOL      0.121862
    116 H52         5.0760   -2.8880    1.6090 hc        1 MOL      0.121862
    117 H53         4.4820   -1.6520    2.6610 hc        1 MOL      0.121862
    118 H54         2.3920   -2.0770    5.7290 hc        1 MOL      0.044545
    119 H55         3.3970   -1.2690    4.4870 hc        1 MOL      0.044545
    120 H56         1.6840   -1.1390    4.3250 hc        1 MOL      0.044545
    121 N11         2.6340   -3.3810   -0.7390 n         1 MOL     -0.058472
    122 C40         3.1220   -3.4850   -2.1110 c3        1 MOL     -0.241559
    123 C41         4.6040   -3.5100   -2.2390 c         1 MOL      0.466575
    124 O16         5.1520   -3.1670   -3.3210 o         1 MOL     -0.535320
    125 C42         2.4540   -4.5950   -2.9420 c3        1 MOL      0.432559
    126 O17         1.1550   -4.8570   -2.5330 oh        1 MOL     -0.626129
    127 H57         2.0840   -4.1380   -0.3590 hn        1 MOL      0.186568
    128 H58         2.7390   -2.5830   -2.5800 h1        1 MOL      0.049421
    129 H59         3.0600   -5.5010   -2.9060 h1        1 MOL     -0.007946
    130 H60         2.4460   -4.4500   -4.0230 h1        1 MOL     -0.007946
    131 H61         0.7080   -4.0770   -2.8500 ho        1 MOL      0.403764
    132 N12         5.3270   -4.0020   -1.2120 n         1 MOL     -0.383163
    133 C43         6.7580   -3.9160   -0.8570 c3        1 MOL      0.159954
    134 C44         7.5150   -2.5930   -0.9900 c         1 MOL      0.490515
    135 O18         8.7060   -2.5470   -0.6920 o         1 MOL     -0.527460
    136 C45         7.5050   -5.0380   -1.5610 c3        1 MOL     -0.502184
    137 H62         4.7230   -4.2640   -0.4520 hn        1 MOL      0.254761
    138 H63         6.7930   -4.0980    0.2190 h1        1 MOL      0.064839
    139 H64         6.9530   -5.9380   -1.2780 hc        1 MOL      0.145962
    140 H65         7.4720   -4.9440   -2.6510 hc        1 MOL      0.145962
    141 H66         8.5650   -5.0360   -1.2920 hc        1 MOL      0.145962
    142 N13         6.7610   -1.5760   -1.4000 n         1 MOL     -0.412708
    143 C46         7.2960   -0.2850   -1.4480 c3        1 MOL      0.223702
    144 C47         7.1970    0.3700   -0.0330 c         1 MOL      0.464575
    145 O19         6.3990   -0.0030    0.8120 o         1 MOL     -0.486678
    146 C48         6.3870    0.4620   -2.4060 c3        1 MOL     -0.307974
    147 H67         5.7560   -1.6490   -1.4540 hn        1 MOL      0.342466
    148 H68         8.3630   -0.3820   -1.6970 h1        1 MOL      0.026873
    149 H69         6.6810    1.5080   -2.5250 hc        1 MOL      0.086061
    150 H70         6.5810    0.0550   -3.3940 hc        1 MOL      0.086061
    151 H71         5.3460    0.3560   -2.1160 hc        1 MOL      0.086061
    152 N14         7.9690    1.4420    0.1520 n         1 MOL     -0.593932
    153 C49         8.1680    2.1720    1.4350 c3        1 MOL      0.143618
    154 C50         8.4030    1.4950    2.8020 c         1 MOL      0.342197
    155 O20         8.3850    2.1360    3.8710 o         1 MOL     -0.476757
    156 C51         7.1440    3.2750    1.4480 c3        1 MOL      0.388781
    157 C52         7.1070    4.2180    0.1960 c3        1 MOL     -0.201772
    158 C53         6.1560    5.4140    0.3390 c         1 MOL      0.656390
    159 O21         6.4170    6.3260    1.1640 o         1 MOL     -0.675902
    160 O22         5.2300    5.5680   -0.4990 o         1 MOL     -0.675902
    161 H72         8.6280    1.6650   -0.5790 hn        1 MOL      0.308932
    162 H73         9.0450    2.7600    1.1700 h1        1 MOL      0.034395
    163 H74         7.4630    3.9030    2.2780 hc        1 MOL     -0.113056
    164 H75         6.1330    2.9430    1.6700 hc        1 MOL     -0.113056
    165 H76         6.6900    3.7350   -0.6920 hc        1 MOL      0.007927
    166 H77         8.1070    4.5230   -0.1160 hc        1 MOL      0.007927
    167 N15         8.6820    0.1640    2.8160 n         1 MOL     -0.237151
    168 C54         8.7300   -0.7150    3.9810 c3        1 MOL     -0.105147
    169 H78         8.3140   -0.1970    4.8440 h1        1 MOL      0.077339
    170 H79         8.1490   -1.6160    3.7820 h1        1 MOL      0.077339
    171 H80         9.7650   -0.9890    4.1870 h1        1 MOL      0.077339
    172 H81         8.8970   -0.2430    1.9100 hn        1 MOL      0.213758
    173 Ca1         0.6200    4.2720   -0.0890 Ca        1 MOL      1.719817
    174 O23         1.2160    1.6880    0.8250 oh        1 MOL     -0.830695
    175 H82         2.1350    1.4480    0.9130 ho        1 MOL      0.408783
    176 H83         0.7340    0.8980    1.1010 ho        1 MOL      0.408783
    177 O24         0.6600    4.8630    2.6330 oh        1 MOL     -0.830695
    178 H84         0.7360    5.8040    2.7750 ho        1 MOL      0.408783
    179 H85         0.3720    4.5120    3.4760 ho        1 MOL      0.408783
    180 O25        -0.8920    6.3990    0.1660 oh        1 MOL     -0.830695
    181 H86        -0.2900    7.1410    0.0620 ho        1 MOL      0.408783
    182 H87        -1.3600    6.5940    0.9780 ho        1 MOL      0.408783
    183 O26         3.3230    3.7560   -0.2780 oh        1 MOL     -0.830695
    184 H88         3.5200    2.8230   -0.1710 ho        1 MOL      0.408783
    185 H89         4.1720    4.1780   -0.3290 ho        1 MOL      0.408783
    186 O27         2.2080    6.3270    0.2090 oh        1 MOL     -0.830695
    187 H90         2.9880    6.5390    0.7140 ho        1 MOL      0.408783
    188 H91         1.9930    7.1380   -0.2570 ho        1 MOL      0.408783
    189 O28         0.4760    5.6610   -2.3180 oh        1 MOL     -0.830695
    190 H92         1.3060    5.8120   -2.7820 ho        1 MOL      0.408783
    191 H93        -0.0480    6.4310   -2.5360 ho        1 MOL      0.408783
@<TRIPOS>BOND
     1    1    2 1   
     2    1    4 1   
     3    1    5 1   
     4    1    6 1   
     5    2    3 2   
     6    2    7 1   
     7    7    8 1   
     8    7   15 1   
     9    8    9 1   
    10    8   11 1   
    11    8   16 1   
    12    9   10 2   
    13    9   19 1   
    14   11   12 1   
    15   11   17 1   
    16   11   18 1   
    17   12   13 1   
    18   12   14 1   
    19   19   20 1   
    20   19   28 1   
    21   20   21 1   
    22   20   23 1   
    23   20   29 1   
    24   21   22 2   
    25   21   41 1   
    26   23   24 1   
    27   23   30 1   
    28   23   31 1   
    29   24   25 1   
    30   24   32 1   
    31   24   33 1   
    32   25   26 1   
    33   25   34 1   
    34   25   35 1   
    35   26   27 1   
    36   26   36 1   
    37   26   37 1   
    38   27   38 1   
    39   27   39 1   
    40   27   40 1   
    41   41   42 1   
    42   41   49 1   
    43   42   43 1   
    44   42   45 1   
    45   42   50 1   
    46   43   44 2   
    47   43   53 1   
    48   45   46 1   
    49   45   51 1   
    50   45   52 1   
    51   46   47 1   
    52   46   48 1   
    53   53   54 1   
    54   53   57 1   
    55   54   55 1   
    56   54   58 1   
    57   54   59 1   
    58   55   56 2   
    59   55   60 1   
    60   60   61 1   
    61   60   68 1   
    62   61   62 1   
    63   61   64 1   
    64   61   69 1   
    65   62   63 2   
    66   62   74 1   
    67   64   65 1   
    68   64   70 1   
    69   64   71 1   
    70   65   66 1   
    71   65   67 2   
    72   66   72 1   
    73   66   73 1   
    74   74   75 1   
    75   74   78 1   
    76   75   76 1   
    77   75   79 1   
    78   75   80 1   
    79   76   77 2   
    80   76   81 1   
    81   81   82 1   
    82   81   93 1   
    83   82   83 1   
    84   82   85 1   
    85   82   94 1   
    86   83   84 2   
    87   83  102 1   
    88   85   86 1   
    89   85   95 1   
    90   85   96 1   
    91   86   87 ar  
    92   86   88 ar  
    93   87   89 ar  
    94   87   97 1   
    95   88   90 ar  
    96   88   98 1   
    97   89   91 ar  
    98   89   99 1   
    99   90   91 ar  
   100   90  100 1   
   101   91   92 1   
   102   92  101 1   
   103  102  103 1   
   104  102  110 1   
   105  103  104 1   
   106  103  106 1   
   107  103  111 1   
   108  104  105 2   
   109  104  121 1   
   110  106  107 1   
   111  106  108 1   
   112  106  112 1   
   113  107  109 1   
   114  107  113 1   
   115  107  114 1   
   116  108  115 1   
   117  108  116 1   
   118  108  117 1   
   119  109  118 1   
   120  109  119 1   
   121  109  120 1   
   122  121  122 1   
   123  121  127 1   
   124  122  123 1   
   125  122  125 1   
   126  122  128 1   
   127  123  124 2   
   128  123  132 1   
   129  125  126 1   
   130  125  129 1   
   131  125  130 1   
   132  126  131 1   
   133  132  133 1   
   134  132  137 1   
   135  133  134 1   
   136  133  136 1   
   137  133  138 1   
   138  134  135 2   
   139  134  142 1   
   140  136  139 1   
   141  136  140 1   
   142  136  141 1   
   143  142  143 1   
   144  142  147 1   
   145  143  144 1   
   146  143  146 1   
   147  143  148 1   
   148  144  145 2   
   149  144  152 1   
   150  146  149 1   
   151  146  150 1   
   152  146  151 1   
   153  152  153 1   
   154  152  161 1   
   155  153  154 1   
   156  153  156 1   
   157  153  162 1   
   158  154  155 2   
   159  154  167 1   
   160  156  157 1   
   161  156  163 1   
   162  156  164 1   
   163  157  158 1   
   164  157  165 1   
   165  157  166 1   
   166  158  159 1   
   167  158  160 1   
   168  167  168 1   
   169  167  172 1   
   170  168  169 1   
   171  168  170 1   
   172  168  171 1   
   173  174  175 1   
   174  174  176 1   
   175  177  178 1   
   176  177  179 1   
   177  180  181 1   
   178  180  182 1   
   179  183  184 1   
   180  183  185 1   
   181  186  187 1   
   182  186  188 1   
   183  189  190 1   
   184  189  191 1   
@<TRIPOS>SUBSTRUCTURE
     1 MOL         1 TEMP              0 ****  ****    0 ROOT
