@<TRIPOS>MOLECULE
MOL
  189   185     1     0     0
SMALL
resp


@<TRIPOS>ATOM
      1 C1         -5.6410   -4.2590   -3.7660 c3        1 MOL     -0.291020
      2 C2         -5.9410   -3.4980   -2.4560 c         1 MOL      0.849128
      3 O1         -5.0420   -3.3220   -1.6420 o         1 MOL     -0.689717
      4 H1         -6.3840   -5.0430   -3.9080 hc        1 MOL      0.068254
      5 H2         -5.6780   -3.5660   -4.6060 hc        1 MOL      0.068254
      6 H3         -4.6490   -4.7060   -3.7080 hc        1 MOL      0.068254
      7 N1         -7.1070   -2.8400   -2.4580 n         1 MOL     -0.717986
      8 C3         -7.5830   -1.7710   -1.5570 c3        1 MOL      0.228067
      9 C4         -6.4300   -0.6980   -1.3390 c         1 MOL      0.516027
     10 O2         -5.8900   -0.5460   -0.2240 o         1 MOL     -0.542163
     11 C5         -8.1350   -2.3200   -0.2290 c3        1 MOL     -0.257236
     12 C6         -7.6500   -3.6240    0.3040 c         1 MOL      0.718348
     13 O3         -6.5520   -3.6550    0.9000 o         1 MOL     -0.710146
     14 O4         -8.3310   -4.6720    0.2500 o         1 MOL     -0.710146
     15 H4         -7.8030   -3.0740   -3.1550 hn        1 MOL      0.338561
     16 H5         -8.3000   -1.1360   -2.0770 h1        1 MOL      0.014865
     17 H6         -9.2130   -2.4540   -0.2980 hc        1 MOL      0.056139
     18 H7         -8.0160   -1.5770    0.5620 hc        1 MOL      0.056139
     19 N2         -6.0530   -0.0800   -2.5140 n         1 MOL     -0.502913
     20 C7         -5.0880    0.9700   -2.8150 c3        1 MOL     -0.030669
     21 C8         -5.5280    2.3120   -2.3120 c         1 MOL      0.477757
     22 O5         -5.8770    3.2290   -3.0970 o         1 MOL     -0.587206
     23 C9         -3.6420    0.5570   -2.5370 c3        1 MOL      0.398514
     24 C10        -2.7170    1.7960   -2.6730 c3        1 MOL      0.060059
     25 C11        -3.2550   -0.6470   -3.4660 c3        1 MOL     -0.372227
     26 C12        -2.5910    2.3880   -4.1150 c3        1 MOL     -0.369056
     27 H8         -6.6700   -0.1810   -3.3070 hn        1 MOL      0.300037
     28 H9         -5.1630    1.0050   -3.9030 h1        1 MOL      0.046201
     29 H10        -3.5310    0.1490   -1.5290 hc        1 MOL     -0.194574
     30 H11        -1.7940    1.3700   -2.2760 hc        1 MOL      0.018902
     31 H12        -3.0970    2.5510   -1.9780 hc        1 MOL      0.018902
     32 H13        -2.1840   -0.7650   -3.3350 hc        1 MOL      0.078651
     33 H14        -3.7590   -1.5960   -3.2490 hc        1 MOL      0.078651
     34 H15        -3.3700   -0.3450   -4.5130 hc        1 MOL      0.078651
     35 H16        -1.8050    1.8650   -4.6610 hc        1 MOL      0.077756
     36 H17        -3.5530    2.2920   -4.6080 hc        1 MOL      0.077756
     37 H18        -2.3610    3.4380   -3.9190 hc        1 MOL      0.077756
     38 N3         -5.4350    2.5900   -0.9910 n         1 MOL     -0.133979
     39 C13        -6.1550    3.7380   -0.3080 c3        1 MOL     -0.042714
     40 C14        -5.3660    4.8340    0.4010 c         1 MOL      0.432089
     41 O6         -5.7760    5.9870    0.5200 o         1 MOL     -0.473412
     42 C15        -7.1950    3.0480    0.5940 c3        1 MOL     -0.286068
     43 C16        -7.8980    4.0190    1.5150 c         1 MOL      0.712400
     44 O7         -8.9940    4.5630    1.1300 o         1 MOL     -0.718161
     45 O8         -7.4330    4.1640    2.6940 o         1 MOL     -0.718161
     46 H19        -5.1110    1.7670   -0.5000 hn        1 MOL      0.154505
     47 H20        -6.6380    4.2800   -1.1100 h1        1 MOL      0.115832
     48 H21        -6.7440    2.1770    1.0680 hc        1 MOL      0.058985
     49 H22        -7.7890    2.4740   -0.1240 hc        1 MOL      0.058985
     50 N4         -4.1250    4.5100    0.9520 n         1 MOL     -0.452179
     51 C17        -3.4170    3.1910    1.1780 c3        1 MOL     -0.009575
     52 C18        -2.2200    3.4520    2.0630 c         1 MOL      0.567783
     53 O9         -1.7230    4.5880    2.1380 o         1 MOL     -0.506052
     54 H23        -3.5940    5.2990    1.2820 hn        1 MOL      0.268937
     55 H24        -2.9730    2.8990    0.2290 h1        1 MOL      0.127925
     56 H25        -4.1130    2.4930    1.6510 h1        1 MOL      0.127925
     57 N5         -1.6080    2.5340    2.8410 n         1 MOL     -0.643965
     58 C19        -1.9300    1.1050    2.9120 c3        1 MOL      0.505623
     59 C20        -2.2610    0.4030    1.5350 c         1 MOL      0.157371
     60 O10        -3.4060   -0.0820    1.2630 o         1 MOL     -0.486045
     61 C21        -3.0650    0.8780    3.9080 c3        1 MOL     -0.531951
     62 C22        -3.0800   -0.5090    4.5940 c         1 MOL      0.768791
     63 O11        -2.2120   -1.3820    4.3510 o         1 MOL     -0.712324
     64 O12        -4.0350   -0.8230    5.3360 o         1 MOL     -0.712324
     65 H26        -0.9550    2.8780    3.5290 hn        1 MOL      0.314403
     66 H27        -1.0250    0.6690    3.3240 h1        1 MOL      0.015282
     67 H28        -4.0540    1.0510    3.4950 hc        1 MOL      0.132980
     68 H29        -3.0740    1.6680    4.6530 hc        1 MOL      0.132980
     69 N6         -1.3100    0.3620    0.6220 n         1 MOL     -0.192777
     70 C23         0.0960    0.8190    0.6370 c3        1 MOL     -0.041372
     71 C24         0.3860    2.2600    0.0560 c         1 MOL      0.428471
     72 O13        -0.3840    2.7100   -0.7790 o         1 MOL     -0.481533
     73 H30        -1.6920   -0.1900   -0.1370 hn        1 MOL      0.264012
     74 H31         0.8670    0.1430    0.2590 h1        1 MOL      0.044929
     75 H32         0.3970    0.9580    1.6750 h1        1 MOL      0.044929
     76 N7          1.4790    2.9570    0.4800 n         1 MOL     -0.165758
     77 C25         1.9490    4.2420    0.0150 c3        1 MOL     -0.188580
     78 C26         2.7920    4.1920   -1.3130 c         1 MOL      0.535790
     79 O14         2.9770    5.2340   -1.9130 o         1 MOL     -0.525669
     80 C27         2.5000    5.1380    1.1250 c3        1 MOL      0.040452
     81 C28         1.6690    5.3280    2.3790 c3        1 MOL     -0.069090
     82 C29         0.7310    6.5340    2.2050 c         1 MOL      0.604291
     83 N8          0.2950    7.1700    3.2470 n         1 MOL     -0.823484
     84 O15         0.2930    6.9570    1.1010 o         1 MOL     -0.537893
     85 H33         2.0300    2.5450    1.2200 hn        1 MOL      0.198849
     86 H34         1.0990    4.7630   -0.4200 h1        1 MOL      0.149684
     87 H35         2.8110    6.1110    0.7380 hc        1 MOL      0.023480
     88 H36         3.4870    4.7400    1.3910 hc        1 MOL      0.023480
     89 H37         2.3390    5.4550    3.2250 hc        1 MOL      0.013768
     90 H38         1.0400    4.4760    2.6330 hc        1 MOL      0.013768
     91 H39         0.5150    6.9240    4.2070 hn        1 MOL      0.379072
     92 H40        -0.3670    7.9000    3.0150 hn        1 MOL      0.379072
     93 N9          3.2200    3.0160   -1.8130 n         1 MOL     -0.360699
     94 C30         3.7960    2.7530   -3.1390 c3        1 MOL      0.002306
     95 C31         5.1330    1.9240   -3.2010 c         1 MOL      0.266723
     96 O16         5.4530    1.2820   -4.2080 o         1 MOL     -0.492456
     97 C32         2.6990    1.9620   -3.9190 c3        1 MOL      0.197972
     98 C33         1.4650    2.7990   -4.3450 c3        1 MOL     -0.229332
     99 C34         2.1800    0.7060   -3.2320 c3        1 MOL     -0.229332
    100 H41         2.9130    2.2070   -1.2800 hn        1 MOL      0.148337
    101 H42         4.0770    3.7010   -3.6060 h1        1 MOL      0.097908
    102 H43         3.1040    1.6470   -4.8820 hc        1 MOL     -0.002717
    103 H44         1.0120    3.4000   -3.5600 hc        1 MOL      0.060534
    104 H45         1.6710    3.5620   -5.1000 hc        1 MOL      0.060534
    105 H46         0.6940    2.1750   -4.7820 hc        1 MOL      0.060534
    106 H47         1.5440    0.1080   -3.8770 hc        1 MOL      0.060534
    107 H48         3.0270    0.0910   -2.9310 hc        1 MOL      0.060534
    108 H49         1.5750    0.7330   -2.3240 hc        1 MOL      0.060534
    109 N10         5.8340    1.8250   -2.0880 n         1 MOL     -0.055526
    110 C35         7.0360    0.9720   -2.0380 c3        1 MOL     -0.004137
    111 C36         6.9410   -0.4120   -1.4330 c         1 MOL      0.502177
    112 O17         7.6260   -1.3660   -1.8460 o         1 MOL     -0.539980
    113 C37         8.0760    1.8310   -1.3870 c3        1 MOL     -0.083604
    114 C38         8.1370    3.2760   -1.7990 c         1 MOL      0.564798
    115 N11         8.3130    3.6990   -3.0320 n         1 MOL     -0.761123
    116 O18         8.1310    4.1020   -0.8680 o         1 MOL     -0.555757
    117 H50         5.6310    2.4620   -1.3320 hn        1 MOL      0.157139
    118 H51         7.3900    0.8580   -3.0640 h1        1 MOL      0.054631
    119 H52         9.0740    1.4070   -1.5550 hc        1 MOL      0.044292
    120 H53         7.8660    1.7230   -0.3300 hc        1 MOL      0.044292
    121 H54         8.4230    3.0240   -3.7660 hn        1 MOL      0.370434
    122 H55         8.3900    4.7050   -3.0840 hn        1 MOL      0.370434
    123 N12         6.0400   -0.6570   -0.4290 n         1 MOL     -0.321666
    124 C39         6.0290   -1.8630    0.4270 c3        1 MOL      0.105599
    125 C40         4.6500   -2.4990    0.6470 c         1 MOL      0.387358
    126 O19         3.6050   -1.8420    0.6600 o         1 MOL     -0.475220
    127 C41         6.4430   -1.5250    1.8280 c3        1 MOL      0.023868
    128 C42         7.7040   -0.6330    1.8940 ca        1 MOL      0.001512
    129 C43         8.9530   -1.1240    1.3900 ca        1 MOL     -0.174219
    130 C44         7.6600    0.7690    2.2310 ca        1 MOL     -0.174219
    131 C45        10.0820   -0.2740    1.3940 ca        1 MOL     -0.204728
    132 C46         8.7940    1.5650    2.3300 ca        1 MOL     -0.204728
    133 C47        10.0270    1.0320    1.8550 ca        1 MOL      0.267784
    134 O20        11.1300    1.8240    1.8670 oh        1 MOL     -0.454626
    135 H56         5.3580    0.0570   -0.2110 hn        1 MOL      0.176426
    136 H57         6.7480   -2.5650   -0.0030 h1        1 MOL      0.056727
    137 H58         6.6080   -2.4430    2.3840 hc        1 MOL      0.033590
    138 H59         5.6560   -0.9910    2.3660 hc        1 MOL      0.033590
    139 H60         9.0690   -2.1730    1.1490 ha        1 MOL      0.136848
    140 H61         6.7110    1.1750    2.5510 ha        1 MOL      0.136848
    141 H62        11.0450   -0.5930    1.0220 ha        1 MOL      0.131894
    142 H63         8.6430    2.5950    2.5990 ha        1 MOL      0.131894
    143 H64        11.8550    1.3560    1.4360 ho        1 MOL      0.331435
    144 N13         4.5710   -3.7960    0.8910 n         1 MOL     -0.584895
    145 C48         3.4900   -4.6560    1.2850 c3        1 MOL      0.005548
    146 C49         2.5240   -5.1230    0.2140 c         1 MOL      0.598098
    147 O21         2.0940   -6.2710    0.3710 o         1 MOL     -0.537818
    148 C50         2.7720   -4.1620    2.5800 c3        1 MOL      0.129052
    149 C51         3.6650   -3.6900    3.7810 c3        1 MOL     -0.179987
    150 C52         4.3200   -4.7890    4.5640 c         1 MOL      0.779295
    151 O22         5.4030   -4.6390    5.1140 o         1 MOL     -0.764770
    152 O23         3.7770   -5.9040    4.6890 o         1 MOL     -0.764770
    153 H65         5.4790   -4.1680    1.1320 hn        1 MOL      0.360260
    154 H66         4.0020   -5.5220    1.7190 h1        1 MOL      0.054583
    155 H67         2.0700   -4.9310    2.9040 hc        1 MOL      0.006438
    156 H68         2.1380   -3.2950    2.3540 hc        1 MOL      0.006438
    157 H69         3.0580   -3.1700    4.5150 hc        1 MOL      0.017552
    158 H70         4.5120   -3.0740    3.5010 hc        1 MOL      0.017552
    159 N14         2.1640   -4.2740   -0.7400 n         1 MOL     -0.524300
    160 C53         1.0340   -4.3330   -1.6840 c3        1 MOL     -0.349157
    161 C54         1.3480   -5.2100   -2.9130 c         1 MOL      0.586001
    162 O24         0.4340   -5.5460   -3.6560 o         1 MOL     -0.538955
    163 C55         0.5240   -3.0130   -2.0780 c3        1 MOL     -0.008059
    164 C56         0.0230   -2.0420   -1.0280 c3        1 MOL      0.123986
    165 C57        -1.2150   -2.6240   -0.3100 c         1 MOL      0.365551
    166 O25        -2.3440   -2.1730   -0.6390 o         1 MOL     -0.497454
    167 O26        -1.1370   -3.2790    0.7470 o         1 MOL     -0.497454
    168 H71         2.5600   -3.3450   -0.6720 hn        1 MOL      0.353126
    169 H72         0.2080   -4.8220   -1.1630 h1        1 MOL      0.242985
    170 H73        -0.3710   -3.0510   -2.7090 hc        1 MOL      0.029982
    171 H74         1.2400   -2.4740   -2.6930 hc        1 MOL      0.029982
    172 H75        -0.2360   -1.1300   -1.5770 hc        1 MOL     -0.030326
    173 H76         0.8630   -1.9110   -0.3420 hc        1 MOL     -0.030326
    174 N15         2.6250   -5.6760   -3.0280 n         1 MOL     -0.255443
    175 C58         3.1760   -6.5500   -4.0220 c3        1 MOL     -0.180667
    176 H77         2.4450   -7.3170   -4.2780 h1        1 MOL      0.079376
    177 H78         3.4260   -5.9750   -4.9140 h1        1 MOL      0.079376
    178 H79         4.0770   -7.0240   -3.6310 h1        1 MOL      0.079376
    179 H80         3.2070   -5.5930   -2.2060 hn        1 MOL      0.243612
    180 Ca1        -4.3800   -2.3950    0.8650 Ca        1 MOL      1.738006
    181 O27        -5.4600   -1.1960    2.8940 oh        1 MOL     -0.892747
    182 H81        -6.3820   -0.9750    2.8840 ho        1 MOL      0.423358
    183 H82        -5.1800   -1.0250    3.7960 ho        1 MOL      0.423358
    184 O28        -4.1080   -5.2070    0.3990 oh        1 MOL     -0.892747
    185 H83        -3.4320   -5.8160    0.0950 ho        1 MOL      0.423358
    186 H84        -4.9260   -5.5480    0.0400 ho        1 MOL      0.423358
    187 O29        -3.3800   -3.4680    3.1730 oh        1 MOL     -0.892747
    188 H85        -2.9630   -4.2550    3.5140 ho        1 MOL      0.423358
    189 H86        -3.2270   -2.8060    3.8430 ho        1 MOL      0.423358
@<TRIPOS>BOND
     1    1    2 1   
     2    1    4 1   
     3    1    5 1   
     4    1    6 1   
     5    2    3 2   
     6    2    7 1   
     7    7    8 1   
     8    7   15 1   
     9    8    9 1   
    10    8   11 1   
    11    8   16 1   
    12    9   10 2   
    13    9   19 1   
    14   11   12 1   
    15   11   17 1   
    16   11   18 1   
    17   12   13 1   
    18   12   14 1   
    19   19   20 1   
    20   19   27 1   
    21   20   21 1   
    22   20   23 1   
    23   20   28 1   
    24   21   22 2   
    25   21   38 1   
    26   23   24 1   
    27   23   25 1   
    28   23   29 1   
    29   24   26 1   
    30   24   30 1   
    31   24   31 1   
    32   25   32 1   
    33   25   33 1   
    34   25   34 1   
    35   26   35 1   
    36   26   36 1   
    37   26   37 1   
    38   38   39 1   
    39   38   46 1   
    40   39   40 1   
    41   39   42 1   
    42   39   47 1   
    43   40   41 2   
    44   40   50 1   
    45   42   43 1   
    46   42   48 1   
    47   42   49 1   
    48   43   44 1   
    49   43   45 1   
    50   50   51 1   
    51   50   54 1   
    52   51   52 1   
    53   51   55 1   
    54   51   56 1   
    55   52   53 2   
    56   52   57 1   
    57   57   58 1   
    58   57   65 1   
    59   58   59 1   
    60   58   61 1   
    61   58   66 1   
    62   59   60 2   
    63   59   69 1   
    64   61   62 1   
    65   61   67 1   
    66   61   68 1   
    67   62   63 1   
    68   62   64 1   
    69   69   70 1   
    70   69   73 1   
    71   70   71 1   
    72   70   74 1   
    73   70   75 1   
    74   71   72 2   
    75   71   76 1   
    76   76   77 1   
    77   76   85 1   
    78   77   78 1   
    79   77   80 1   
    80   77   86 1   
    81   78   79 2   
    82   78   93 1   
    83   80   81 1   
    84   80   87 1   
    85   80   88 1   
    86   81   82 1   
    87   81   89 1   
    88   81   90 1   
    89   82   83 1   
    90   82   84 2   
    91   83   91 1   
    92   83   92 1   
    93   93   94 1   
    94   93  100 1   
    95   94   95 1   
    96   94   97 1   
    97   94  101 1   
    98   95   96 2   
    99   95  109 1   
   100   97   98 1   
   101   97   99 1   
   102   97  102 1   
   103   98  103 1   
   104   98  104 1   
   105   98  105 1   
   106   99  106 1   
   107   99  107 1   
   108   99  108 1   
   109  109  110 1   
   110  109  117 1   
   111  110  111 1   
   112  110  113 1   
   113  110  118 1   
   114  111  112 2   
   115  111  123 1   
   116  113  114 1   
   117  113  119 1   
   118  113  120 1   
   119  114  115 1   
   120  114  116 2   
   121  115  121 1   
   122  115  122 1   
   123  123  124 1   
   124  123  135 1   
   125  124  125 1   
   126  124  127 1   
   127  124  136 1   
   128  125  126 2   
   129  125  144 1   
   130  127  128 1   
   131  127  137 1   
   132  127  138 1   
   133  128  129 ar  
   134  128  130 ar  
   135  129  131 ar  
   136  129  139 1   
   137  130  132 ar  
   138  130  140 1   
   139  131  133 ar  
   140  131  141 1   
   141  132  133 ar  
   142  132  142 1   
   143  133  134 1   
   144  134  143 1   
   145  144  145 1   
   146  144  153 1   
   147  145  146 1   
   148  145  148 1   
   149  145  154 1   
   150  146  147 2   
   151  146  159 1   
   152  148  149 1   
   153  148  155 1   
   154  148  156 1   
   155  149  150 1   
   156  149  157 1   
   157  149  158 1   
   158  150  151 1   
   159  150  152 1   
   160  159  160 1   
   161  159  168 1   
   162  160  161 1   
   163  160  163 1   
   164  160  169 1   
   165  161  162 2   
   166  161  174 1   
   167  163  164 1   
   168  163  170 1   
   169  163  171 1   
   170  164  165 1   
   171  164  172 1   
   172  164  173 1   
   173  165  166 1   
   174  165  167 1   
   175  174  175 1   
   176  174  179 1   
   177  175  176 1   
   178  175  177 1   
   179  175  178 1   
   180  181  182 1   
   181  181  183 1   
   182  184  185 1   
   183  184  186 1   
   184  187  188 1   
   185  187  189 1   
@<TRIPOS>SUBSTRUCTURE
     1 MOL         1 TEMP              0 ****  ****    0 ROOT
