@<TRIPOS>MOLECULE
MOL
  189   185     1     0     0
SMALL
resp


@<TRIPOS>ATOM
      1 C1        -11.6610   -5.1350   -3.2780 c3        1 MOL     -0.492218
      2 C2        -11.5620   -3.7950   -2.4970 c         1 MOL      0.600499
      3 O1        -12.2270   -2.7650   -2.7870 o         1 MOL     -0.595359
      4 H1        -12.7040   -5.3420   -3.5140 hc        1 MOL      0.130713
      5 H2        -11.0870   -5.0610   -4.2020 hc        1 MOL      0.130713
      6 H3        -11.2610   -5.9430   -2.6650 hc        1 MOL      0.130713
      7 N1        -10.7470   -3.7920   -1.4340 n         1 MOL      0.160065
      8 C3        -10.4840   -2.6630   -0.6150 c3        1 MOL     -0.811285
      9 C4         -9.0710   -2.0580   -0.7920 c         1 MOL      0.411210
     10 O2         -8.1510   -2.8870   -0.9360 o         1 MOL     -0.342737
     11 C5        -10.8250   -3.0630    0.8150 c3        1 MOL      0.134234
     12 C6        -10.0790   -4.2800    1.3370 c         1 MOL      0.577021
     13 O3         -9.1460   -4.8830    0.6350 o         1 MOL     -0.664519
     14 O4        -10.3380   -4.7370    2.4940 o         1 MOL     -0.664519
     15 H4        -10.1820   -4.6210   -1.3190 hn        1 MOL     -0.042067
     16 H5        -11.0780   -1.8090   -0.9430 h1        1 MOL      0.230256
     17 H6        -11.9040   -3.2080    0.9110 hc        1 MOL      0.087967
     18 H7        -10.5960   -2.3030    1.5680 hc        1 MOL      0.087967
     19 N2         -8.8960   -0.7340   -0.7340 n         1 MOL     -0.219569
     20 C7         -7.5800   -0.0910   -1.0990 c3        1 MOL     -0.000582
     21 C8         -6.7980    0.2340    0.1730 c         1 MOL      0.430930
     22 O5         -7.0160    1.3490    0.7390 o         1 MOL     -0.486301
     23 C9         -7.8410    1.1490   -2.0140 c3        1 MOL     -0.395127
     24 C10        -6.6350    1.8000   -2.7030 c3        1 MOL      0.019028
     25 C11        -7.0380    2.9460   -3.6430 c3        1 MOL     -0.267980
     26 C12        -5.8430    3.3060   -4.5210 c3        1 MOL      0.158022
     27 N3         -6.0560    4.6680   -5.1450 n4        1 MOL     -0.381272
     28 H8         -9.7490   -0.1940   -0.7640 hn        1 MOL      0.278248
     29 H9         -7.0180   -0.7560   -1.7510 h1        1 MOL      0.126396
     30 H10        -8.3360    1.8770   -1.3770 hc        1 MOL      0.134450
     31 H11        -8.4980    0.8590   -2.8350 hc        1 MOL      0.134450
     32 H12        -5.9820    1.0600   -3.1710 hc        1 MOL      0.073254
     33 H13        -6.0500    2.1810   -1.8660 hc        1 MOL      0.073254
     34 H14        -7.1320    3.7810   -2.9480 hc        1 MOL      0.119243
     35 H15        -7.9230    2.6830   -4.2230 hc        1 MOL      0.119243
     36 H16        -5.8320    2.6700   -5.3960 hx        1 MOL      0.047156
     37 H17        -4.9650    3.2880   -3.8670 hx        1 MOL      0.047156
     38 H18        -5.1520    4.9950   -5.4390 hn        1 MOL      0.289567
     39 H19        -6.6760    4.6000   -5.9360 hn        1 MOL      0.289567
     40 H20        -6.3630    5.3340   -4.4470 hn        1 MOL      0.289567
     41 N4         -5.9530   -0.7150    0.6360 n         1 MOL     -0.412319
     42 C13        -5.0580   -0.5280    1.7990 c3        1 MOL      0.612152
     43 C14        -3.6180   -0.3970    1.3850 c         1 MOL      0.199818
     44 O6         -3.2290   -1.0470    0.4160 o         1 MOL     -0.471369
     45 C15        -5.1670   -1.8230    2.6740 c3        1 MOL     -0.156442
     46 C16        -6.4440   -2.6110    2.6530 c         1 MOL      0.784638
     47 O7         -6.5260   -3.7440    2.1070 o         1 MOL     -0.680679
     48 O8         -7.4830   -2.0840    3.2070 o         1 MOL     -0.680679
     49 H21        -5.8890   -1.5100    0.0080 hn        1 MOL      0.131887
     50 H22        -5.4490    0.3350    2.3380 h1        1 MOL      0.001911
     51 H23        -4.8780   -1.4800    3.6680 hc        1 MOL     -0.053700
     52 H24        -4.4280   -2.5320    2.2820 hc        1 MOL     -0.053700
     53 N5         -2.7910    0.3770    2.0380 n         1 MOL     -0.073889
     54 C17        -2.8750    1.2020    3.2540 c3        1 MOL     -0.494089
     55 C18        -3.3970    2.6560    2.9330 c         1 MOL      0.671619
     56 O9         -4.3610    2.7820    2.1440 o         1 MOL     -0.574323
     57 H25        -1.8780    0.3130    1.6010 hn        1 MOL      0.190482
     58 H26        -1.8480    1.2770    3.6170 h1        1 MOL      0.186420
     59 H27        -3.5450    0.7490    3.9810 h1        1 MOL      0.186420
     60 N6         -2.8830    3.6390    3.6940 n         1 MOL     -0.375343
     61 C19        -3.2490    5.1070    3.5880 c3        1 MOL     -0.020116
     62 C20        -2.4040    5.7740    2.4170 c         1 MOL      0.436681
     63 O10        -1.2180    6.1390    2.6180 o         1 MOL     -0.461602
     64 C21        -2.8770    5.6640    4.9040 c3        1 MOL     -0.274337
     65 C22        -2.8890    7.2140    5.0110 c         1 MOL      0.745265
     66 O11        -1.8860    7.7780    5.5860 o         1 MOL     -0.641909
     67 O12        -3.8550    7.8740    4.6040 o         1 MOL     -0.641909
     68 H28        -2.0910    3.3680    4.2640 hn        1 MOL      0.262642
     69 H29        -4.3220    5.1750    3.4430 h1        1 MOL      0.106859
     70 H30        -1.8400    5.4720    5.1900 hc        1 MOL      0.077641
     71 H31        -3.4980    5.2690    5.7090 hc        1 MOL      0.077641
     72 N7         -3.0100    5.9270    1.2340 n         1 MOL     -0.307019
     73 C23        -2.2660    6.4500    0.0880 c3        1 MOL     -0.063363
     74 C24        -1.7600    5.3960   -0.9070 c         1 MOL      0.509353
     75 O13        -1.4230    5.6890   -2.0140 o         1 MOL     -0.595308
     76 H32        -3.9750    5.6740    1.0700 hn        1 MOL      0.257886
     77 H33        -1.3750    7.0030    0.3850 h1        1 MOL      0.089161
     78 H34        -2.9720    7.1700   -0.3310 h1        1 MOL      0.089161
     79 N8         -1.6170    4.1620   -0.4830 n         1 MOL     -0.234031
     80 C25        -0.9450    3.1390   -1.3730 c3        1 MOL      0.025223
     81 C26        -0.1260    2.1820   -0.4570 c         1 MOL      0.396103
     82 O14        -0.6530    1.6770    0.5420 o         1 MOL     -0.405355
     83 C27        -1.9740    2.4440   -2.2380 c3        1 MOL      0.266082
     84 C28        -1.3640    1.2450   -2.9390 c3        1 MOL     -0.512424
     85 O15        -2.9870    1.9160   -1.3500 oh        1 MOL     -0.614445
     86 H35        -1.9850    3.8810    0.4140 hn        1 MOL      0.115773
     87 H36        -0.1740    3.5860   -1.9860 h1        1 MOL      0.070608
     88 H37        -2.3710    3.1720   -2.9340 h1        1 MOL      0.025650
     89 H38        -3.5170    2.6620   -1.0580 ho        1 MOL      0.370244
     90 H39        -1.0220    0.5000   -2.2150 hc        1 MOL      0.141284
     91 H40        -2.1830    0.7250   -3.4380 hc        1 MOL      0.141284
     92 H41        -0.6460    1.5310   -3.7020 hc        1 MOL      0.141284
     93 N9          1.0960    1.8530   -0.8670 n         1 MOL     -0.415398
     94 C29         1.9070    0.8520   -0.1400 c3        1 MOL     -0.080602
     95 C30         3.3500    1.3430    0.0190 c         1 MOL      0.634572
     96 O16         3.9620    0.9130    0.9840 o         1 MOL     -0.545170
     97 C31         1.8460   -0.5060   -0.8590 c3        1 MOL      0.235769
     98 C32         2.6200   -1.6060   -0.0740 c3        1 MOL     -0.003546
     99 C33         2.4780   -0.4350   -2.2950 c3        1 MOL     -0.077407
    100 C34         2.1650   -3.0140   -0.6350 c3        1 MOL     -0.342266
    101 H42         1.5470    2.4470   -1.5450 hn        1 MOL      0.297158
    102 H43         1.5450    0.5700    0.8470 h1        1 MOL      0.100993
    103 H44         0.8100   -0.8310   -1.0170 hc        1 MOL     -0.012565
    104 H45         2.2790   -1.4730    0.9510 hc        1 MOL      0.042297
    105 H46         3.7040   -1.4650   -0.0580 hc        1 MOL      0.042297
    106 H47         2.1170    0.4560   -2.8130 hc        1 MOL     -0.003398
    107 H48         3.5540   -0.3260   -2.1750 hc        1 MOL     -0.003398
    108 H49         2.2770   -1.3330   -2.8810 hc        1 MOL     -0.003398
    109 H50         2.4150   -3.8070    0.0700 hc        1 MOL      0.082310
    110 H51         1.0790   -2.9640   -0.7680 hc        1 MOL      0.082310
    111 H52         2.6360   -3.2820   -1.5890 hc        1 MOL      0.082310
    112 N10         3.9280    2.2650   -0.7340 n         1 MOL     -0.470898
    113 C35         5.3560    2.6990   -0.5760 c3        1 MOL     -0.004824
    114 C36         6.2130    2.4470   -1.8360 c         1 MOL      0.550916
    115 O17         5.6580    2.3250   -2.8960 o         1 MOL     -0.519671
    116 C37         5.3450    4.2060   -0.3700 c3        1 MOL      0.282668
    117 C38         4.7400    4.6320    0.9870 c3        1 MOL     -0.238756
    118 O18         6.6630    4.7830   -0.3000 oh        1 MOL     -0.671759
    119 H53         3.4350    2.7880   -1.4410 hn        1 MOL      0.258769
    120 H54         5.8380    2.2570    0.2910 h1        1 MOL      0.103354
    121 H55         4.7260    4.6530   -1.1450 h1        1 MOL      0.021514
    122 H56         6.5430    5.7140   -0.0780 ho        1 MOL      0.422651
    123 H57         5.1940    4.2460    1.8940 hc        1 MOL      0.071187
    124 H58         4.8400    5.7160    1.0170 hc        1 MOL      0.071187
    125 H59         3.6640    4.4350    0.9880 hc        1 MOL      0.071187
    126 N11         7.5560    2.4280   -1.6860 n         1 MOL     -0.450868
    127 C39         8.5870    2.0590   -2.6570 c3        1 MOL     -0.023946
    128 C40         8.9920    0.6150   -2.6200 c         1 MOL      0.641138
    129 O19         9.3640    0.0200   -3.6420 o         1 MOL     -0.574915
    130 C41         9.7020    3.0970   -2.5080 c3        1 MOL      0.365509
    131 C42        10.8300    2.9380   -3.5110 c3        1 MOL     -0.367467
    132 O20        10.1950    3.0050   -1.1730 oh        1 MOL     -0.664603
    133 H60         7.8620    2.6690   -0.7460 hn        1 MOL      0.330196
    134 H61         8.0980    2.2680   -3.6170 h1        1 MOL      0.089200
    135 H62         9.1820    4.0520   -2.5960 h1        1 MOL      0.030938
    136 H63        11.1480    2.8890   -1.1560 ho        1 MOL      0.403705
    137 H64        10.9990    1.8630   -3.5800 hc        1 MOL      0.091989
    138 H65        10.5550    3.3590   -4.4750 hc        1 MOL      0.091989
    139 H66        11.7220    3.3710   -3.0720 hc        1 MOL      0.091989
    140 N12         8.8150   -0.0060   -1.4450 n         1 MOL     -0.457023
    141 C43         8.9960   -1.4330   -1.2410 c3        1 MOL      0.121332
    142 C44         8.1240   -2.0050   -0.1380 c         1 MOL      0.497326
    143 O21         7.4110   -1.3780    0.6020 o         1 MOL     -0.475309
    144 C45        10.4660   -1.7640   -0.9960 c3        1 MOL     -0.275850
    145 C46        10.9300   -1.6020    0.4480 c3        1 MOL      0.072240
    146 C47        12.4150   -2.0050    0.5430 c3        1 MOL     -0.094069
    147 C48        13.4200   -1.0000    0.0710 c3        1 MOL      0.120426
    148 N13        14.7830   -1.5980    0.1860 n4        1 MOL     -0.267158
    149 H67         8.5150    0.5060   -0.6270 hn        1 MOL      0.222651
    150 H68         8.7850   -1.9720   -2.1660 h1        1 MOL      0.092614
    151 H69        11.1570   -1.1190   -1.5470 hc        1 MOL      0.076875
    152 H70        10.4910   -2.8240   -1.2500 hc        1 MOL      0.076875
    153 H71        10.5010   -2.3640    1.1010 hc        1 MOL      0.051898
    154 H72        10.7820   -0.6780    1.0020 hc        1 MOL      0.051898
    155 H73        12.5410   -2.9510    0.0090 hc        1 MOL      0.047503
    156 H74        12.5340   -2.0780    1.6210 hc        1 MOL      0.047503
    157 H75        13.3500   -0.0360    0.5760 hx        1 MOL      0.050045
    158 H76        13.2520   -0.7300   -0.9680 hx        1 MOL      0.050045
    159 H77        15.4890   -0.9040   -0.0240 hn        1 MOL      0.245535
    160 H78        14.9520   -2.0150    1.0900 hn        1 MOL      0.245535
    161 H79        15.0090   -2.3450   -0.4530 hn        1 MOL      0.245535
    162 N14         8.2450   -3.3240    0.0710 n         1 MOL     -0.598134
    163 C49         7.5190   -4.0440    1.2210 c3        1 MOL      0.513802
    164 C50         5.9650   -4.1420    1.1370 c         1 MOL      0.361914
    165 O22         5.3150   -3.5990    2.0100 o         1 MOL     -0.533966
    166 C51         8.1530   -5.4130    1.5470 c3        1 MOL     -0.284433
    167 C52         7.6050   -6.0430    2.8130 c3        1 MOL     -0.121118
    168 C53         8.7070   -6.9930    3.3130 c         1 MOL      0.696321
    169 O23         8.9380   -8.0880    2.7130 o         1 MOL     -0.662799
    170 O24         9.3460   -6.6620    4.3350 o         1 MOL     -0.662799
    171 H80         8.9550   -3.8110   -0.4460 hn        1 MOL      0.272247
    172 H81         7.6770   -3.4290    2.1070 h1        1 MOL     -0.011108
    173 H82         9.2020   -5.1930    1.7270 hc        1 MOL      0.060031
    174 H83         8.0360   -6.0580    0.6730 hc        1 MOL      0.060031
    175 H84         6.6480   -6.5390    2.6410 hc        1 MOL      0.034825
    176 H85         7.2640   -5.3660    3.6050 hc        1 MOL      0.034825
    177 N15         5.3010   -4.8090    0.1950 n         1 MOL     -0.259011
    178 C54         5.8300   -5.5600   -0.9590 c3        1 MOL     -0.107934
    179 H86         5.0090   -6.0520   -1.4790 h1        1 MOL      0.059876
    180 H87         6.3310   -4.8720   -1.6410 h1        1 MOL      0.059876
    181 H88         6.5400   -6.3100   -0.6120 h1        1 MOL      0.059876
    182 H89         4.3010   -4.8840    0.3440 hn        1 MOL      0.258860
    183 Ca1        -6.8410   -5.1140   -0.2620 Ca        1 MOL      1.533682
    184 O25        -6.8910   -4.7180   -3.0210 oh        1 MOL     -0.846954
    185 H90        -7.2650   -4.4410   -3.8600 ho        1 MOL      0.401798
    186 H91        -6.3420   -5.4630   -3.2400 ho        1 MOL      0.401798
    187 O26        -4.9870   -3.3490   -0.9440 oh        1 MOL     -0.846954
    188 H92        -4.9870   -2.6680   -1.6180 ho        1 MOL      0.401798
    189 H93        -4.0820   -3.4130   -0.6630 ho        1 MOL      0.401798
@<TRIPOS>BOND
     1    1    2 1   
     2    1    4 1   
     3    1    5 1   
     4    1    6 1   
     5    2    3 2   
     6    2    7 1   
     7    7    8 1   
     8    7   15 1   
     9    8    9 1   
    10    8   11 1   
    11    8   16 1   
    12    9   10 2   
    13    9   19 1   
    14   11   12 1   
    15   11   17 1   
    16   11   18 1   
    17   12   13 1   
    18   12   14 1   
    19   19   20 1   
    20   19   28 1   
    21   20   21 1   
    22   20   23 1   
    23   20   29 1   
    24   21   22 2   
    25   21   41 1   
    26   23   24 1   
    27   23   30 1   
    28   23   31 1   
    29   24   25 1   
    30   24   32 1   
    31   24   33 1   
    32   25   26 1   
    33   25   34 1   
    34   25   35 1   
    35   26   27 1   
    36   26   36 1   
    37   26   37 1   
    38   27   38 1   
    39   27   39 1   
    40   27   40 1   
    41   41   42 1   
    42   41   49 1   
    43   42   43 1   
    44   42   45 1   
    45   42   50 1   
    46   43   44 2   
    47   43   53 1   
    48   45   46 1   
    49   45   51 1   
    50   45   52 1   
    51   46   47 1   
    52   46   48 1   
    53   53   54 1   
    54   53   57 1   
    55   54   55 1   
    56   54   58 1   
    57   54   59 1   
    58   55   56 2   
    59   55   60 1   
    60   60   61 1   
    61   60   68 1   
    62   61   62 1   
    63   61   64 1   
    64   61   69 1   
    65   62   63 2   
    66   62   72 1   
    67   64   65 1   
    68   64   70 1   
    69   64   71 1   
    70   65   66 1   
    71   65   67 1   
    72   72   73 1   
    73   72   76 1   
    74   73   74 1   
    75   73   77 1   
    76   73   78 1   
    77   74   75 2   
    78   74   79 1   
    79   79   80 1   
    80   79   86 1   
    81   80   81 1   
    82   80   83 1   
    83   80   87 1   
    84   81   82 2   
    85   81   93 1   
    86   83   84 1   
    87   83   85 1   
    88   83   88 1   
    89   84   90 1   
    90   84   91 1   
    91   84   92 1   
    92   85   89 1   
    93   93   94 1   
    94   93  101 1   
    95   94   95 1   
    96   94   97 1   
    97   94  102 1   
    98   95   96 2   
    99   95  112 1   
   100   97   98 1   
   101   97   99 1   
   102   97  103 1   
   103   98  100 1   
   104   98  104 1   
   105   98  105 1   
   106   99  106 1   
   107   99  107 1   
   108   99  108 1   
   109  100  109 1   
   110  100  110 1   
   111  100  111 1   
   112  112  113 1   
   113  112  119 1   
   114  113  114 1   
   115  113  116 1   
   116  113  120 1   
   117  114  115 2   
   118  114  126 1   
   119  116  117 1   
   120  116  118 1   
   121  116  121 1   
   122  117  123 1   
   123  117  124 1   
   124  117  125 1   
   125  118  122 1   
   126  126  127 1   
   127  126  133 1   
   128  127  128 1   
   129  127  130 1   
   130  127  134 1   
   131  128  129 2   
   132  128  140 1   
   133  130  131 1   
   134  130  132 1   
   135  130  135 1   
   136  131  137 1   
   137  131  138 1   
   138  131  139 1   
   139  132  136 1   
   140  140  141 1   
   141  140  149 1   
   142  141  142 1   
   143  141  144 1   
   144  141  150 1   
   145  142  143 2   
   146  142  162 1   
   147  144  145 1   
   148  144  151 1   
   149  144  152 1   
   150  145  146 1   
   151  145  153 1   
   152  145  154 1   
   153  146  147 1   
   154  146  155 1   
   155  146  156 1   
   156  147  148 1   
   157  147  157 1   
   158  147  158 1   
   159  148  159 1   
   160  148  160 1   
   161  148  161 1   
   162  162  163 1   
   163  162  171 1   
   164  163  164 1   
   165  163  166 1   
   166  163  172 1   
   167  164  165 2   
   168  164  177 1   
   169  166  167 1   
   170  166  173 1   
   171  166  174 1   
   172  167  168 1   
   173  167  175 1   
   174  167  176 1   
   175  168  169 1   
   176  168  170 1   
   177  177  178 1   
   178  177  182 1   
   179  178  179 1   
   180  178  180 1   
   181  178  181 1   
   182  184  185 1   
   183  184  186 1   
   184  187  188 1   
   185  187  189 1   
@<TRIPOS>SUBSTRUCTURE
     1 MOL         1 TEMP              0 ****  ****    0 ROOT
