@<TRIPOS>MOLECULE
MOL
  184   179     1     0     0
SMALL
resp


@<TRIPOS>ATOM
      1 C1         -6.8250   -6.6820   -2.7640 c3        1 MOL     -0.336777
      2 C2         -6.4110   -5.2540   -2.4060 c         1 MOL      0.629711
      3 O1         -5.5190   -4.7700   -3.0740 o         1 MOL     -0.568322
      4 H1         -6.8380   -6.7960   -3.8480 hc        1 MOL      0.070465
      5 H2         -6.1130   -7.3860   -2.3340 hc        1 MOL      0.070465
      6 H3         -7.8200   -6.8830   -2.3660 hc        1 MOL      0.070465
      7 N1         -7.0650   -4.5950   -1.4880 n         1 MOL     -0.179796
      8 C3         -8.2540   -4.9680   -0.6980 c3        1 MOL     -0.125529
      9 C4         -7.9960   -4.4220    0.6890 c         1 MOL      0.450241
     10 O2         -6.8840   -4.6770    1.2080 o         1 MOL     -0.454395
     11 C5         -9.5380   -4.3240   -1.3010 c3        1 MOL     -0.074363
     12 C6         -9.3880   -2.8360   -1.7260 c         1 MOL      0.429725
     13 O3         -9.7500   -1.9800   -0.8360 o         1 MOL     -0.650230
     14 O4         -8.7700   -2.5030   -2.8100 o         1 MOL     -0.650230
     15 H4         -6.8000   -3.6270   -1.3710 hn        1 MOL      0.158138
     16 H5         -8.4440   -6.0440   -0.7470 h1        1 MOL      0.116530
     17 H6        -10.3520   -4.5810   -0.6270 hc        1 MOL      0.031365
     18 H7         -9.7510   -4.8310   -2.2460 hc        1 MOL      0.031365
     19 N2         -9.0230   -3.7140    1.3170 n         1 MOL     -0.368604
     20 C7         -9.0680   -3.1560    2.6880 c3        1 MOL      0.138078
     21 C8         -8.1190   -1.9750    2.9140 c         1 MOL      0.350350
     22 O5         -8.1090   -1.4150    3.9930 o         1 MOL     -0.578814
     23 C9         -8.8360   -4.3030    3.6260 c3        1 MOL     -0.225982
     24 H8         -9.7920   -3.4780    0.7070 hn        1 MOL      0.234068
     25 H9        -10.0930   -2.8360    2.8760 h1        1 MOL      0.066196
     26 H10        -9.3200   -4.1920    4.6000 hc        1 MOL      0.068533
     27 H11        -9.1280   -5.2770    3.2320 hc        1 MOL      0.068533
     28 H12        -7.7690   -4.4200    3.8030 hc        1 MOL      0.068533
     29 N3         -7.3460   -1.6060    1.9330 n         1 MOL      0.185027
     30 C10        -6.5040   -0.4750    1.9430 c3        1 MOL     -0.096479
     31 C11        -7.3680    0.7850    1.6990 c         1 MOL      0.473593
     32 O6         -8.2720    0.7570    0.8330 o         1 MOL     -0.532852
     33 C12        -5.3480   -0.6900    0.9030 c3        1 MOL      0.067221
     34 C13        -5.6290   -1.5990   -0.2970 c         1 MOL      0.633577
     35 O7         -4.7330   -2.4250   -0.6330 o         1 MOL     -0.594546
     36 O8         -6.7990   -1.6190   -0.8520 o         1 MOL     -0.594546
     37 H13        -7.4720   -2.0660    1.0360 hn        1 MOL     -0.189931
     38 H14        -5.9930   -0.2510    2.8890 h1        1 MOL      0.049171
     39 H15        -4.4820   -1.0720    1.4320 hc        1 MOL     -0.022822
     40 H16        -5.1650    0.2770    0.4220 hc        1 MOL     -0.022822
     41 N4         -7.1260    1.8150    2.4720 n         1 MOL     -0.343311
     42 C14        -7.6720    3.1480    2.2760 c3        1 MOL     -0.091621
     43 C15        -6.6800    4.2730    1.8160 c         1 MOL      0.458367
     44 O9         -7.1220    5.4190    1.4840 o         1 MOL     -0.556598
     45 H17        -6.3720    1.7100    3.1470 hn        1 MOL      0.272117
     46 H18        -8.0130    3.5030    3.2530 h1        1 MOL      0.098367
     47 H19        -8.5420    3.0730    1.6310 h1        1 MOL      0.098367
     48 N5         -5.4430    3.9250    1.7830 n         1 MOL     -0.358206
     49 C16        -4.3170    4.9080    1.7150 c3        1 MOL      0.198976
     50 C17        -3.0430    4.3280    1.0780 c         1 MOL      0.496334
     51 O10        -2.8750    3.1420    1.0700 o         1 MOL     -0.484825
     52 C18        -4.0690    5.3680    3.2020 c3        1 MOL     -0.256317
     53 C19        -3.0580    6.4960    3.2240 c         1 MOL      0.688051
     54 N6         -2.1420    6.5100    4.1150 n         1 MOL     -0.797602
     55 O11        -3.1790    7.4180    2.3820 o         1 MOL     -0.591171
     56 H20        -5.2300    2.9580    1.9750 hn        1 MOL      0.227589
     57 H21        -4.6090    5.7700    1.1280 h1        1 MOL      0.023815
     58 H22        -3.7500    4.4960    3.7750 hc        1 MOL      0.085107
     59 H23        -5.0140    5.7180    3.6160 hc        1 MOL      0.085107
     60 H24        -2.0590    5.6430    4.6280 hn        1 MOL      0.396159
     61 H25        -1.4800    7.2720    4.1590 hn        1 MOL      0.396159
     62 N7         -2.0780    5.1770    0.7010 n         1 MOL     -0.572036
     63 C20        -0.8630    4.7460   -0.0170 c3        1 MOL      0.063943
     64 C21         0.2990    4.3970    0.9520 c         1 MOL      0.588889
     65 O12         0.1300    4.5980    2.1900 o         1 MOL     -0.574635
     66 H26        -2.1700    6.1620    0.9260 hn        1 MOL      0.332924
     67 H27        -0.4540    5.5300   -0.6560 h1        1 MOL      0.058820
     68 H28        -1.0940    3.9230   -0.6890 h1        1 MOL      0.058820
     69 N8          1.4630    3.9070    0.5590 n         1 MOL     -0.522246
     70 C22         1.8590    3.7350   -0.8310 c3        1 MOL     -0.111408
     71 C23         2.7550    2.4310   -0.8330 c         1 MOL      0.536634
     72 O13         3.5640    2.0530    0.0110 o         1 MOL     -0.484079
     73 C24         2.7480    4.9890   -1.2980 c3        1 MOL      0.386470
     74 C25         3.4930    4.7200   -2.5970 c3        1 MOL     -0.081746
     75 O14         1.9420    6.1050   -1.4170 oh        1 MOL     -0.618973
     76 H29         2.1580    3.7500    1.2730 hn        1 MOL      0.334280
     77 H30         1.0210    3.7160   -1.5250 h1        1 MOL      0.088063
     78 H31         3.4130    5.2330   -0.4740 h1        1 MOL     -0.002738
     79 H32         2.0080    6.5230   -0.5570 ho        1 MOL      0.383848
     80 H33         3.7130    5.7370   -2.8960 hc        1 MOL      0.023512
     81 H34         4.4210    4.1720   -2.3940 hc        1 MOL      0.023512
     82 H35         2.9020    4.1740   -3.3330 hc        1 MOL      0.023512
     83 N9          2.4580    1.6390   -1.8700 n         1 MOL     -0.442198
     84 C26         3.2550    0.4310   -2.1880 c3        1 MOL     -0.092091
     85 C27         3.6160    0.4030   -3.7020 c         1 MOL      0.517692
     86 O15         2.8270   -0.0300   -4.5620 o         1 MOL     -0.588947
     87 C28         2.5490   -0.9050   -1.7290 c3        1 MOL      0.203101
     88 C29         2.1670   -0.9480   -0.2630 c3        1 MOL     -0.182226
     89 C30         3.4510   -2.0370   -2.0570 c3        1 MOL     -0.196349
     90 C31         1.2120   -2.0630    0.1820 c3        1 MOL     -0.351663
     91 H36         1.6090    1.8060   -2.3910 hn        1 MOL      0.274740
     92 H37         4.2080    0.4680   -1.6530 h1        1 MOL      0.150590
     93 H38         1.6420   -1.0890   -2.3110 hc        1 MOL     -0.003087
     94 H39         1.5180   -0.0850   -0.1320 hc        1 MOL      0.091714
     95 H40         3.0440   -0.9570    0.3970 hc        1 MOL      0.091714
     96 H41         3.6500   -2.0330   -3.1250 hc        1 MOL      0.053956
     97 H42         4.3890   -2.0720   -1.5070 hc        1 MOL      0.053956
     98 H43         2.9630   -2.9870   -1.8140 hc        1 MOL      0.053956
     99 H44         0.6430   -1.8550    1.0900 hc        1 MOL      0.094059
    100 H45         0.4980   -2.1540   -0.6260 hc        1 MOL      0.094059
    101 H46         1.7050   -3.0280    0.3140 hc        1 MOL      0.094059
    102 N10         4.8010    0.7800   -4.1330 n         1 MOL     -0.444666
    103 C32         5.8970    1.3700   -3.3700 c3        1 MOL      0.195256
    104 C33         6.7540    0.2970   -2.6990 c         1 MOL      0.558686
    105 O16         6.6440   -0.9150   -3.0090 o         1 MOL     -0.603823
    106 C34         6.5620    2.5060   -4.2150 c3        1 MOL     -0.177355
    107 C35         7.2000    3.6200   -3.4380 c         1 MOL      0.673883
    108 O17         7.3930    3.6130   -2.1800 o         1 MOL     -0.696723
    109 O18         7.6820    4.4810   -4.2070 o         1 MOL     -0.696723
    110 H47         4.9550    0.7350   -5.1340 hn        1 MOL      0.280983
    111 H48         5.3490    1.8360   -2.5580 h1        1 MOL     -0.008273
    112 H49         5.8150    3.0040   -4.8200 hc        1 MOL      0.030663
    113 H50         7.2620    2.0770   -4.9330 hc        1 MOL      0.030663
    114 N11         7.6990    0.7120   -1.8580 n         1 MOL     -0.679444
    115 C36         8.6160   -0.2050   -1.1730 c3        1 MOL      0.605573
    116 C37         9.1540    0.5570    0.0830 c         1 MOL      0.163536
    117 O19         9.4580    1.7780   -0.0040 o         1 MOL     -0.456090
    118 C38         9.7400   -0.7000   -2.0950 c3        1 MOL     -0.305099
    119 C39        10.5830   -1.8150   -1.4810 ca        1 MOL      0.145868
    120 C40        11.6330   -1.4130   -0.7230 ca        1 MOL     -0.186647
    121 C41        10.3430   -3.1820   -1.7170 ca        1 MOL     -0.186647
    122 C42        12.4330   -2.3340   -0.0310 ca        1 MOL     -0.119691
    123 C43        11.2230   -4.1170   -1.1640 ca        1 MOL     -0.119691
    124 C44        12.2880   -3.6910   -0.3740 ca        1 MOL     -0.116288
    125 H51         7.7710    1.7160   -1.7580 hn        1 MOL      0.379915
    126 H52         8.0930   -1.0900   -0.8130 h1        1 MOL     -0.091855
    127 H53        10.2310    0.2450   -2.3070 hc        1 MOL      0.089327
    128 H54         9.3170   -0.9560   -3.0650 hc        1 MOL      0.089327
    129 H55        11.7680   -0.3560   -0.5310 ha        1 MOL      0.128749
    130 H56         9.5400   -3.4610   -2.3860 ha        1 MOL      0.128749
    131 H57        13.1680   -2.0850    0.7300 ha        1 MOL      0.100930
    132 H58        11.1330   -5.1920   -1.2570 ha        1 MOL      0.100930
    133 H59        13.0000   -4.4150    0.0050 ha        1 MOL      0.085703
    134 N12         9.1960   -0.1020    1.2880 n         1 MOL      0.007261
    135 C45         8.6130   -1.3290    1.7780 c3        1 MOL      0.356203
    136 C46         7.1560   -1.5610    1.6570 c         1 MOL      0.426723
    137 O20         6.5200   -0.6670    1.1320 o         1 MOL     -0.517038
    138 C47         9.2140   -1.5180    3.1860 c3        1 MOL     -0.295772
    139 C48        10.4200   -0.5910    3.2490 c3        1 MOL      0.297390
    140 C49         9.8650    0.5420    2.3970 c3        1 MOL     -0.271768
    141 H60         9.0920   -2.1340    1.2230 h1        1 MOL     -0.066368
    142 H61         8.4620   -1.1980    3.9070 hc        1 MOL      0.066781
    143 H62         9.5240   -2.5330    3.4460 hc        1 MOL      0.066781
    144 H63        10.8500   -0.3030    4.2100 hc        1 MOL     -0.071676
    145 H64        11.2700   -1.0290    2.7170 hc        1 MOL     -0.071676
    146 H65         9.1440    0.9760    3.0920 h1        1 MOL      0.106061
    147 H66        10.6630    1.2330    2.1330 h1        1 MOL      0.106061
    148 N13         6.5200   -2.6760    2.1030 n         1 MOL     -0.506508
    149 C50         5.0670   -2.9030    2.0150 c3        1 MOL      0.451728
    150 C51         4.7570   -4.4260    2.0830 c         1 MOL      0.299495
    151 O21         3.8930   -4.9540    2.7630 o         1 MOL     -0.517287
    152 C52         4.1640   -2.1230    2.9680 c3        1 MOL     -0.059759
    153 C53         4.3030   -2.2730    4.4460 c3        1 MOL     -0.099579
    154 C54         5.6500   -1.6870    4.9390 c         1 MOL      0.707160
    155 O22         6.6960   -2.4060    4.8890 o         1 MOL     -0.696726
    156 O23         5.7270   -0.5240    5.4430 o         1 MOL     -0.696726
    157 H67         7.1450   -3.3250    2.5570 hn        1 MOL      0.244137
    158 H68         4.8400   -2.5670    1.0010 h1        1 MOL     -0.001811
    159 H69         3.1340   -2.3690    2.6970 hc        1 MOL      0.034752
    160 H70         4.3700   -1.0720    2.7820 hc        1 MOL      0.034752
    161 H71         4.2370   -3.3210    4.7480 hc        1 MOL     -0.012035
    162 H72         3.5580   -1.6830    4.9920 hc        1 MOL     -0.012035
    163 N14         5.5600   -5.3070    1.4900 n         1 MOL     -0.276431
    164 C55         6.4270   -5.2300    0.3230 c3        1 MOL     -0.160970
    165 H73         6.0470   -4.4730   -0.3630 h1        1 MOL      0.072931
    166 H74         7.4360   -4.9620    0.6370 h1        1 MOL      0.072931
    167 H75         6.4470   -6.1970   -0.1800 h1        1 MOL      0.072931
    168 H76         5.4290   -6.2820    1.7450 hn        1 MOL      0.253327
    169 Ca1        -8.3850    0.0540   -1.9400 Ca        1 MOL      1.763078
    170 O24        -8.7150    2.2250   -3.5450 oh        1 MOL     -0.836804
    171 H77        -8.5790    2.0910   -4.4880 ho        1 MOL      0.408640
    172 H78        -8.9170    3.1590   -3.4690 ho        1 MOL      0.408640
    173 O25        -6.1710    1.5340   -1.4820 oh        1 MOL     -0.836804
    174 H79        -6.2950    2.4870   -1.4270 ho        1 MOL      0.408640
    175 H80        -5.2620    1.4310   -1.7780 ho        1 MOL      0.408640
    176 O26       -10.2800   -0.3110   -3.7460 oh        1 MOL     -0.836804
    177 H81       -11.2350   -0.1850   -3.7710 ho        1 MOL      0.408640
    178 H82       -10.0910   -0.8290   -4.5290 ho        1 MOL      0.408640
    179 O27        -7.0660   -0.0530   -4.1790 oh        1 MOL     -0.836804
    180 H83        -6.8050   -0.9570   -4.3430 ho        1 MOL      0.408640
    181 H84        -6.3780    0.4740   -4.5910 ho        1 MOL      0.408640
    182 O28       -10.5110    1.4700   -0.9180 oh        1 MOL     -0.836804
    183 H85       -11.2580    1.8440   -1.3790 ho        1 MOL      0.408640
    184 H86       -10.8800    1.0760   -0.1350 ho        1 MOL      0.408640
@<TRIPOS>BOND
     1    1    2 1   
     2    1    4 1   
     3    1    5 1   
     4    1    6 1   
     5    2    3 2   
     6    2    7 1   
     7    7    8 1   
     8    7   15 1   
     9    8    9 1   
    10    8   11 1   
    11    8   16 1   
    12    9   10 2   
    13    9   19 1   
    14   11   12 1   
    15   11   17 1   
    16   11   18 1   
    17   12   13 1   
    18   12   14 1   
    19   19   20 1   
    20   19   24 1   
    21   20   21 1   
    22   20   23 1   
    23   20   25 1   
    24   21   22 2   
    25   21   29 1   
    26   23   26 1   
    27   23   27 1   
    28   23   28 1   
    29   29   30 1   
    30   29   37 1   
    31   30   31 1   
    32   30   33 1   
    33   30   38 1   
    34   31   32 2   
    35   31   41 1   
    36   33   34 1   
    37   33   39 1   
    38   33   40 1   
    39   34   35 1   
    40   34   36 1   
    41   41   42 1   
    42   41   45 1   
    43   42   43 1   
    44   42   46 1   
    45   42   47 1   
    46   43   44 2   
    47   43   48 1   
    48   48   49 1   
    49   48   56 1   
    50   49   50 1   
    51   49   52 1   
    52   49   57 1   
    53   50   51 2   
    54   50   62 1   
    55   52   53 1   
    56   52   58 1   
    57   52   59 1   
    58   53   54 1   
    59   53   55 2   
    60   54   60 1   
    61   54   61 1   
    62   62   63 1   
    63   62   66 1   
    64   63   64 1   
    65   63   67 1   
    66   63   68 1   
    67   64   65 2   
    68   64   69 1   
    69   69   70 1   
    70   69   76 1   
    71   70   71 1   
    72   70   73 1   
    73   70   77 1   
    74   71   72 2   
    75   71   83 1   
    76   73   74 1   
    77   73   75 1   
    78   73   78 1   
    79   74   80 1   
    80   74   81 1   
    81   74   82 1   
    82   75   79 1   
    83   83   84 1   
    84   83   91 1   
    85   84   85 1   
    86   84   87 1   
    87   84   92 1   
    88   85   86 2   
    89   85  102 1   
    90   87   88 1   
    91   87   89 1   
    92   87   93 1   
    93   88   90 1   
    94   88   94 1   
    95   88   95 1   
    96   89   96 1   
    97   89   97 1   
    98   89   98 1   
    99   90   99 1   
   100   90  100 1   
   101   90  101 1   
   102  102  103 1   
   103  102  110 1   
   104  103  104 1   
   105  103  106 1   
   106  103  111 1   
   107  104  105 2   
   108  104  114 1   
   109  106  107 1   
   110  106  112 1   
   111  106  113 1   
   112  107  108 1   
   113  107  109 1   
   114  114  115 1   
   115  114  125 1   
   116  115  116 1   
   117  115  118 1   
   118  115  126 1   
   119  116  117 2   
   120  116  134 1   
   121  118  119 1   
   122  118  127 1   
   123  118  128 1   
   124  119  120 ar  
   125  119  121 ar  
   126  120  122 ar  
   127  120  129 1   
   128  121  123 ar  
   129  121  130 1   
   130  122  124 ar  
   131  122  131 1   
   132  123  124 ar  
   133  123  132 1   
   134  124  133 1   
   135  134  135 1   
   136  134  140 1   
   137  135  136 1   
   138  135  138 1   
   139  135  141 1   
   140  136  137 2   
   141  136  148 1   
   142  138  139 1   
   143  138  142 1   
   144  138  143 1   
   145  139  140 1   
   146  139  144 1   
   147  139  145 1   
   148  140  146 1   
   149  140  147 1   
   150  148  149 1   
   151  148  157 1   
   152  149  150 1   
   153  149  152 1   
   154  149  158 1   
   155  150  151 2   
   156  150  163 1   
   157  152  153 1   
   158  152  159 1   
   159  152  160 1   
   160  153  154 1   
   161  153  161 1   
   162  153  162 1   
   163  154  155 1   
   164  154  156 1   
   165  163  164 1   
   166  163  168 1   
   167  164  165 1   
   168  164  166 1   
   169  164  167 1   
   170  170  171 1   
   171  170  172 1   
   172  173  174 1   
   173  173  175 1   
   174  176  177 1   
   175  176  178 1   
   176  179  180 1   
   177  179  181 1   
   178  182  183 1   
   179  182  184 1   
@<TRIPOS>SUBSTRUCTURE
     1 MOL         1 TEMP              0 ****  ****    0 ROOT
