@<TRIPOS>MOLECULE
MOL
  179   176     1     0     0
SMALL
resp


@<TRIPOS>ATOM
      1 C1          0.4270   -3.8770    5.9290 c3        1 MOL     -0.400577
      2 C2          0.5120   -3.9070    4.3880 c         1 MOL      0.682080
      3 O1         -0.5390   -3.7950    3.7250 o         1 MOL     -0.602513
      4 H1          1.4100   -4.0820    6.3510 hc        1 MOL      0.105777
      5 H2          0.0910   -2.8920    6.2560 hc        1 MOL      0.105777
      6 H3         -0.2790   -4.6340    6.2700 hc        1 MOL      0.105777
      7 N1          1.6840   -3.7570    3.9020 n         1 MOL     -0.529380
      8 C3          2.0130   -3.3210    2.5420 c3        1 MOL      0.121142
      9 C4          2.2750   -4.5980    1.6490 c         1 MOL      0.547367
     10 O2          3.0410   -5.4950    2.0060 o         1 MOL     -0.563472
     11 C5          3.1450   -2.2800    2.5530 c3        1 MOL     -0.004874
     12 C6          3.3680   -1.5660    1.2330 c         1 MOL      0.542428
     13 O3          4.1330   -0.5830    1.1150 o         1 MOL     -0.737894
     14 O4          2.8740   -1.9270    0.1260 o         1 MOL     -0.737894
     15 H4          2.3520   -3.6730    4.6530 hn        1 MOL      0.309113
     16 H5          1.1170   -2.7840    2.2730 h1        1 MOL     -0.216886
     17 H6          4.0660   -2.7960    2.8300 hc        1 MOL      0.025905
     18 H7          2.8530   -1.5740    3.3310 hc        1 MOL      0.025905
     19 N2          1.6200   -4.6450    0.5130 n         1 MOL     -0.241595
     20 C7          1.5600   -5.7560   -0.3590 c3        1 MOL      0.125175
     21 C8          2.6920   -5.7670   -1.4200 c         1 MOL      0.427771
     22 O5          3.2530   -6.7850   -1.6640 o         1 MOL     -0.509655
     23 C9          0.1350   -5.7830   -1.0140 c3        1 MOL     -0.205856
     24 C10        -0.9970   -6.0950   -0.0780 c3        1 MOL     -0.186634
     25 C11        -2.3470   -6.1750   -0.8820 c3        1 MOL     -0.055397
     26 C12        -3.3360   -6.7370    0.1130 c3        1 MOL     -0.017123
     27 N3         -4.7280   -6.6400   -0.4340 n4        1 MOL     -0.162815
     28 H8          1.0140   -3.8600    0.3150 hn        1 MOL      0.266001
     29 H9          1.7650   -6.7000    0.1370 h1        1 MOL      0.066449
     30 H10         0.1330   -6.5610   -1.7740 hc        1 MOL      0.072496
     31 H11        -0.1300   -4.8030   -1.4340 hc        1 MOL      0.072496
     32 H12        -0.9550   -5.5470    0.8650 hc        1 MOL      0.095129
     33 H13        -0.8180   -7.0940    0.3250 hc        1 MOL      0.095129
     34 H14        -2.2680   -6.8820   -1.7180 hc        1 MOL      0.059849
     35 H15        -2.6540   -5.2740   -1.4040 hc        1 MOL      0.059849
     36 H16        -3.2850   -6.0780    0.9820 hx        1 MOL      0.094635
     37 H17        -3.1200   -7.7590    0.4080 hx        1 MOL      0.094635
     38 H18        -5.0030   -5.7200   -0.7430 hn        1 MOL      0.225905
     39 H19        -4.8580   -7.2800   -1.2040 hn        1 MOL      0.225905
     40 H20        -5.4400   -6.8530    0.2540 hn        1 MOL      0.225905
     41 N4          3.1320   -4.5760   -1.9400 n         1 MOL     -0.316707
     42 C13         4.4230   -4.3130   -2.7350 c3        1 MOL      0.128208
     43 C14         5.6560   -3.9050   -1.8620 c         1 MOL      0.355060
     44 O6          6.7340   -3.8120   -2.3880 o         1 MOL     -0.503057
     45 C15         4.1960   -3.2090   -3.8260 c3        1 MOL     -0.421953
     46 C16         3.7350   -1.9280   -3.1970 c         1 MOL      0.876941
     47 O7          4.5740   -1.1470   -2.7210 o         1 MOL     -0.781357
     48 O8          2.5210   -1.6250   -3.1610 o         1 MOL     -0.781357
     49 H21         2.5130   -3.7960   -1.7630 hn        1 MOL      0.131588
     50 H22         4.7330   -5.1990   -3.2890 h1        1 MOL      0.097352
     51 H23         3.4620   -3.6230   -4.5240 hc        1 MOL      0.126246
     52 H24         5.0970   -2.9320   -4.3770 hc        1 MOL      0.126246
     53 N5          5.3950   -3.3960   -0.6340 n         1 MOL     -0.044755
     54 C17         6.4450   -3.0730    0.3550 c3        1 MOL     -0.323781
     55 C18         7.3040   -1.8480    0.1790 c         1 MOL      0.604462
     56 O9          8.4390   -1.8070    0.6640 o         1 MOL     -0.559290
     57 H25         4.4400   -3.4310   -0.3100 hn        1 MOL      0.121367
     58 H26         7.2070   -3.8580    0.3750 h1        1 MOL      0.139015
     59 H27         5.9540   -3.1650    1.3200 h1        1 MOL      0.139015
     60 N6          6.7430   -0.7970   -0.4960 n         1 MOL     -0.249302
     61 C19         7.4170    0.4980   -0.4420 c3        1 MOL     -0.025875
     62 C20         6.3800    1.6750   -0.3060 c         1 MOL      0.597320
     63 O10         5.2950    1.4750   -0.7030 o         1 MOL     -0.492535
     64 C21         8.2580    0.5880   -1.7290 c3        1 MOL     -0.416280
     65 C22         9.1640    1.8310   -1.6320 c         1 MOL      0.657110
     66 N7          9.8870    1.9810   -0.5680 n         1 MOL     -0.758142
     67 O11         9.0650    2.6840   -2.5420 o         1 MOL     -0.579967
     68 H28         5.9600   -0.9090   -1.1250 hn        1 MOL      0.273766
     69 H29         8.0640    0.5600    0.4330 h1        1 MOL      0.036179
     70 H30         7.6390    0.5830   -2.6180 hc        1 MOL      0.159135
     71 H31         8.8650   -0.3130   -1.8130 hc        1 MOL      0.159135
     72 H32         9.8430    1.2320    0.1040 hn        1 MOL      0.367747
     73 H33        10.5470    2.7400   -0.4970 hn        1 MOL      0.367747
     74 N8          6.7530    2.8910    0.1790 n         1 MOL     -0.404583
     75 C23         6.0000    4.1650    0.2560 c3        1 MOL     -0.059680
     76 C24         4.7220    4.0880    1.1090 c         1 MOL      0.594267
     77 O12         4.6980    3.5980    2.2320 o         1 MOL     -0.488728
     78 H34         7.6210    2.8860    0.7000 hn        1 MOL      0.270456
     79 H35         5.6350    4.3480   -0.7610 h1        1 MOL      0.079193
     80 H36         6.6480    5.0200    0.4810 h1        1 MOL      0.079193
     81 N9          3.6750    4.6920    0.5070 n         1 MOL     -0.603142
     82 C25         2.2760    4.6250    0.9770 c3        1 MOL      0.151465
     83 C26         1.8820    3.1500    1.0470 c         1 MOL      0.529251
     84 O13         2.4330    2.2480    0.3560 o         1 MOL     -0.484494
     85 C27         1.4130    5.5180    0.0070 c3        1 MOL     -0.174771
     86 C28         1.8580    7.0090    0.0790 ca        1 MOL      0.162280
     87 C29         1.7160    7.8320    1.2020 ca        1 MOL     -0.204193
     88 C30         2.3870    7.5410   -1.0690 ca        1 MOL     -0.204193
     89 C31         2.0760    9.2100    1.1020 ca        1 MOL     -0.224608
     90 C32         2.7770    8.9210   -1.2440 ca        1 MOL     -0.224608
     91 C33         2.5650    9.7310   -0.0840 ca        1 MOL      0.292539
     92 O14         2.6780   11.0880   -0.1770 oh        1 MOL     -0.455771
     93 H37         3.8530    5.1150   -0.3920 hn        1 MOL      0.294336
     94 H38         2.1340    5.0850    1.9540 h1        1 MOL      0.068141
     95 H39         0.3570    5.5070    0.2740 hc        1 MOL      0.059048
     96 H40         1.5800    5.0690   -0.9790 hc        1 MOL      0.059048
     97 H41         1.2270    7.4940    2.1010 ha        1 MOL      0.130727
     98 H42         2.3560    6.8820   -1.9290 ha        1 MOL      0.130727
     99 H43         1.8480    9.8600    1.9250 ha        1 MOL      0.166791
    100 H44         3.1860    9.2990   -2.1640 ha        1 MOL      0.166791
    101 H45         2.6440   11.4770    0.6950 ho        1 MOL      0.351983
    102 N10         0.8900    2.8960    1.9000 n         1 MOL     -0.625848
    103 C34         0.3020    1.5930    2.2520 c3        1 MOL     -0.033005
    104 C35        -0.0940    0.7140    1.0460 c         1 MOL      0.618416
    105 O15         0.7290    0.1920    0.3520 o         1 MOL     -0.520108
    106 C36         1.0140    0.7450    3.2860 c3        1 MOL      0.427198
    107 C37         0.2720   -0.4030    3.9910 c3        1 MOL      0.011461
    108 C38         1.7440    1.6120    4.3710 c3        1 MOL     -0.211853
    109 C39        -0.7570   -0.0690    5.0240 c3        1 MOL     -0.441731
    110 H46         0.4100    3.6760    2.3180 hn        1 MOL      0.345016
    111 H47        -0.6270    1.8450    2.7700 h1        1 MOL      0.047406
    112 H48         1.8610    0.3060    2.7640 hc        1 MOL      0.030658
    113 H49         1.1030   -0.9490    4.4370 hc        1 MOL      0.069841
    114 H50        -0.1670   -1.0590    3.2390 hc        1 MOL      0.069841
    115 H51         2.2270    0.8710    5.0160 hc        1 MOL      0.026990
    116 H52         2.5310    2.2510    3.9610 hc        1 MOL      0.026990
    117 H53         1.0100    2.1540    4.9740 hc        1 MOL      0.026990
    118 H54        -1.4560    0.6920    4.6680 hc        1 MOL      0.108329
    119 H55        -1.1930   -1.0590    5.1740 hc        1 MOL      0.108329
    120 H56        -0.2610    0.1560    5.9690 hc        1 MOL      0.108329
    121 N11        -1.3590    0.2800    0.9340 n         1 MOL     -0.498555
    122 C40        -1.9160   -0.7340   -0.0180 c3        1 MOL      0.078553
    123 C41        -3.4520   -0.7300   -0.3510 c         1 MOL      0.504911
    124 O16        -3.8980   -1.4390   -1.2580 o         1 MOL     -0.518075
    125 C42        -1.5380   -2.0930    0.6070 c3        1 MOL     -0.154199
    126 O17        -0.1990   -2.4070    0.3770 oh        1 MOL     -0.255253
    127 H57        -2.0970    0.6480    1.5190 hn        1 MOL      0.216825
    128 H58        -1.3400   -0.6580   -0.9430 h1        1 MOL      0.089222
    129 H59        -2.0840   -2.8630    0.0570 h1        1 MOL      0.095792
    130 H60        -1.8110   -2.1160    1.6570 h1        1 MOL      0.095792
    131 H61        -0.1720   -2.2060   -0.5570 ho        1 MOL      0.314252
    132 N12        -4.2710    0.0270    0.3210 n         1 MOL     -0.470448
    133 C43        -5.7380    0.3190   -0.0140 c3        1 MOL      0.060832
    134 C44        -5.7810    0.8230   -1.4290 c         1 MOL      0.641943
    135 O18        -4.7760    1.4740   -1.8010 o         1 MOL     -0.556716
    136 C45        -6.1090    1.3300    1.1920 c3        1 MOL     -0.409730
    137 H62        -3.9440    0.4380    1.1910 hn        1 MOL      0.294767
    138 H63        -6.2460   -0.6480   -0.0900 h1        1 MOL      0.088498
    139 H64        -5.9050    0.7900    2.1180 hc        1 MOL      0.136280
    140 H65        -5.4030    2.1500    1.1000 hc        1 MOL      0.136280
    141 H66        -7.1410    1.6830    1.3040 hc        1 MOL      0.136280
    142 N13        -6.8130    0.5420   -2.2910 n         1 MOL     -0.640455
    143 C46        -8.1190   -0.0870   -2.1540 c3        1 MOL      0.441370
    144 C47        -9.1050    0.8290   -2.9150 c         1 MOL      0.435427
    145 O19        -8.8760    1.2940   -4.0600 o         1 MOL     -0.531613
    146 C48        -8.0830   -1.4640   -2.7750 c3        1 MOL     -0.354328
    147 H67        -6.5340    0.9170   -3.1890 hn        1 MOL      0.318566
    148 H68        -8.3470   -0.1680   -1.0920 h1        1 MOL     -0.018268
    149 H69        -7.4840   -2.0820   -2.1110 hc        1 MOL      0.094002
    150 H70        -9.0690   -1.8670   -2.9730 hc        1 MOL      0.094002
    151 H71        -7.4180   -1.5340   -3.6460 hc        1 MOL      0.094002
    152 N14       -10.1730    1.2880   -2.2360 n         1 MOL     -0.483102
    153 C49       -10.6020    1.0000   -0.8230 c3        1 MOL     -0.113335
    154 C50        -9.9630    2.0150    0.1350 c         1 MOL      0.416664
    155 O20        -9.6460    1.5990    1.2840 o         1 MOL     -0.499236
    156 C51       -12.1450    0.9560   -0.7650 c3        1 MOL      0.074458
    157 C52       -12.5930    0.8340    0.6610 c3        1 MOL     -0.151389
    158 C53       -13.8510   -0.0550    0.8460 c         1 MOL      0.650769
    159 O21       -13.7290   -1.2180    1.3480 o         1 MOL     -0.651879
    160 O22       -14.8910    0.3020    0.3100 o         1 MOL     -0.651879
    161 H72       -10.7460    1.8810   -2.8140 hn        1 MOL      0.326163
    162 H73       -10.2880    0.0310   -0.4370 h1        1 MOL      0.144037
    163 H74       -12.6020    0.2060   -1.4050 hc        1 MOL      0.026617
    164 H75       -12.4940    1.8790   -1.2380 hc        1 MOL      0.026617
    165 H76       -12.7360    1.8180    1.0910 hc        1 MOL      0.022764
    166 H77       -11.8590    0.3580    1.3070 hc        1 MOL      0.022764
    167 N15        -9.6490    3.2640   -0.2360 n         1 MOL     -0.261094
    168 C54        -8.9790    4.2340    0.6180 c3        1 MOL     -0.182270
    169 H78        -7.9410    4.3380    0.3020 h1        1 MOL      0.102094
    170 H79        -9.4810    5.1970    0.5370 h1        1 MOL      0.102094
    171 H80        -9.0100    3.8920    1.6520 h1        1 MOL      0.102094
    172 H81        -9.8590    3.4200   -1.2100 hn        1 MOL      0.249894
    173 Ca1         2.9560    0.1890   -1.2880 Ca        1 MOL      1.740310
    174 O23         0.6040    0.5360   -2.7850 oh        1 MOL     -0.887707
    175 H82        -0.0260    1.1830   -3.1070 ho        1 MOL      0.434068
    176 H83         0.7180   -0.0700   -3.5090 ho        1 MOL      0.434068
    177 O24         3.2010    2.1090   -2.9900 oh        1 MOL     -0.887707
    178 H84         2.7870    2.9680   -2.8670 ho        1 MOL      0.434068
    179 H85         3.6700    2.1800   -3.8100 ho        1 MOL      0.434068
@<TRIPOS>BOND
     1    1    2 1   
     2    1    4 1   
     3    1    5 1   
     4    1    6 1   
     5    2    3 2   
     6    2    7 1   
     7    7    8 1   
     8    7   15 1   
     9    8    9 1   
    10    8   11 1   
    11    8   16 1   
    12    9   10 2   
    13    9   19 1   
    14   11   12 1   
    15   11   17 1   
    16   11   18 1   
    17   12   13 1   
    18   12   14 1   
    19   19   20 1   
    20   19   28 1   
    21   20   21 1   
    22   20   23 1   
    23   20   29 1   
    24   21   22 2   
    25   21   41 1   
    26   23   24 1   
    27   23   30 1   
    28   23   31 1   
    29   24   25 1   
    30   24   32 1   
    31   24   33 1   
    32   25   26 1   
    33   25   34 1   
    34   25   35 1   
    35   26   27 1   
    36   26   36 1   
    37   26   37 1   
    38   27   38 1   
    39   27   39 1   
    40   27   40 1   
    41   41   42 1   
    42   41   49 1   
    43   42   43 1   
    44   42   45 1   
    45   42   50 1   
    46   43   44 2   
    47   43   53 1   
    48   45   46 1   
    49   45   51 1   
    50   45   52 1   
    51   46   47 1   
    52   46   48 1   
    53   53   54 1   
    54   53   57 1   
    55   54   55 1   
    56   54   58 1   
    57   54   59 1   
    58   55   56 2   
    59   55   60 1   
    60   60   61 1   
    61   60   68 1   
    62   61   62 1   
    63   61   64 1   
    64   61   69 1   
    65   62   63 2   
    66   62   74 1   
    67   64   65 1   
    68   64   70 1   
    69   64   71 1   
    70   65   66 1   
    71   65   67 2   
    72   66   72 1   
    73   66   73 1   
    74   74   75 1   
    75   74   78 1   
    76   75   76 1   
    77   75   79 1   
    78   75   80 1   
    79   76   77 2   
    80   76   81 1   
    81   81   82 1   
    82   81   93 1   
    83   82   83 1   
    84   82   85 1   
    85   82   94 1   
    86   83   84 2   
    87   83  102 1   
    88   85   86 1   
    89   85   95 1   
    90   85   96 1   
    91   86   87 ar  
    92   86   88 ar  
    93   87   89 ar  
    94   87   97 1   
    95   88   90 ar  
    96   88   98 1   
    97   89   91 ar  
    98   89   99 1   
    99   90   91 ar  
   100   90  100 1   
   101   91   92 1   
   102   92  101 1   
   103  102  103 1   
   104  102  110 1   
   105  103  104 1   
   106  103  106 1   
   107  103  111 1   
   108  104  105 2   
   109  104  121 1   
   110  106  107 1   
   111  106  108 1   
   112  106  112 1   
   113  107  109 1   
   114  107  113 1   
   115  107  114 1   
   116  108  115 1   
   117  108  116 1   
   118  108  117 1   
   119  109  118 1   
   120  109  119 1   
   121  109  120 1   
   122  121  122 1   
   123  121  127 1   
   124  122  123 1   
   125  122  125 1   
   126  122  128 1   
   127  123  124 2   
   128  123  132 1   
   129  125  126 1   
   130  125  129 1   
   131  125  130 1   
   132  126  131 1   
   133  132  133 1   
   134  132  137 1   
   135  133  134 1   
   136  133  136 1   
   137  133  138 1   
   138  134  135 2   
   139  134  142 1   
   140  136  139 1   
   141  136  140 1   
   142  136  141 1   
   143  142  143 1   
   144  142  147 1   
   145  143  144 1   
   146  143  146 1   
   147  143  148 1   
   148  144  145 2   
   149  144  152 1   
   150  146  149 1   
   151  146  150 1   
   152  146  151 1   
   153  152  153 1   
   154  152  161 1   
   155  153  154 1   
   156  153  156 1   
   157  153  162 1   
   158  154  155 2   
   159  154  167 1   
   160  156  157 1   
   161  156  163 1   
   162  156  164 1   
   163  157  158 1   
   164  157  165 1   
   165  157  166 1   
   166  158  159 1   
   167  158  160 1   
   168  167  168 1   
   169  167  172 1   
   170  168  169 1   
   171  168  170 1   
   172  168  171 1   
   173  174  175 1   
   174  174  176 1   
   175  177  178 1   
   176  177  179 1   
@<TRIPOS>SUBSTRUCTURE
     1 MOL         1 TEMP              0 ****  ****    0 ROOT
