@<TRIPOS>MOLECULE
MOL
  182   178     1     0     0
SMALL
resp


@<TRIPOS>ATOM
      1 C1         -0.2070   -3.4960    6.5060 c3        1 MOL     -0.366783
      2 C2         -0.2920   -3.1120    4.9860 c         1 MOL      0.714129
      3 O1         -1.2710   -3.2690    4.2590 o         1 MOL     -0.574057
      4 H1         -1.1980   -3.7700    6.8660 hc        1 MOL      0.103989
      5 H2          0.4710   -4.3390    6.6310 hc        1 MOL      0.103989
      6 H3          0.1620   -2.6430    7.0760 hc        1 MOL      0.103989
      7 N1          0.9050   -2.6920    4.5180 n         1 MOL     -0.628596
      8 C3          1.3150   -2.5570    3.0990 c3        1 MOL     -0.069072
      9 C4          1.2250   -3.8960    2.3830 c         1 MOL      0.704914
     10 O2          1.3790   -4.9650    2.9640 o         1 MOL     -0.559251
     11 C5          2.8130   -2.0800    3.0450 c3        1 MOL     -0.181172
     12 C6          3.3150   -1.4550    1.7720 c         1 MOL      0.519804
     13 O3          4.2700   -0.6550    1.7780 o         1 MOL     -0.610973
     14 O4          2.7660   -1.8510    0.7090 o         1 MOL     -0.610973
     15 H4          1.6860   -2.4740    5.1250 hn        1 MOL      0.332078
     16 H5          0.6600   -1.8090    2.6390 h1        1 MOL      0.111338
     17 H6          3.4380   -2.9590    3.1810 hc        1 MOL      0.088890
     18 H7          2.9240   -1.3670    3.8730 hc        1 MOL      0.088890
     19 N2          0.9340   -3.8710    1.0560 n         1 MOL     -0.485463
     20 C7          0.8280   -5.0400    0.1110 c3        1 MOL     -0.002739
     21 C8          1.9940   -5.3470   -0.7840 c         1 MOL      0.550807
     22 O5          2.0350   -6.3900   -1.3610 o         1 MOL     -0.555721
     23 C9         -0.5550   -4.9130   -0.6180 c3        1 MOL      0.199481
     24 C10        -1.2090   -6.2760   -0.8930 c3        1 MOL      0.085799
     25 C11        -2.3380   -6.2580   -1.9410 c3        1 MOL     -0.067068
     26 C12        -1.8310   -5.6800   -3.3250 c3        1 MOL      0.121463
     27 N3         -2.5230   -6.2980   -4.4320 n4        1 MOL     -0.229076
     28 H8          0.7000   -2.9680    0.6650 hn        1 MOL      0.246763
     29 H9          0.7630   -5.9220    0.7440 h1        1 MOL      0.092602
     30 H10        -0.2470   -4.5010   -1.5710 hc        1 MOL     -0.069637
     31 H11        -1.2480   -4.3150   -0.0400 hc        1 MOL     -0.069637
     32 H12        -1.5510   -6.6310    0.0810 hc        1 MOL     -0.005599
     33 H13        -0.4460   -7.0170   -1.1120 hc        1 MOL     -0.005599
     34 H14        -3.2660   -5.7470   -1.6580 hc        1 MOL      0.022937
     35 H15        -2.7570   -7.2480   -2.0780 hc        1 MOL      0.022937
     36 H16        -0.7870   -5.9860   -3.4050 hx        1 MOL      0.027421
     37 H17        -1.9700   -4.6060   -3.3330 hx        1 MOL      0.027421
     38 H18        -2.3830   -7.2900   -4.5560 hn        1 MOL      0.232237
     39 H19        -3.5010   -6.0760   -4.3080 hn        1 MOL      0.232237
     40 H20        -2.2120   -5.8730   -5.2940 hn        1 MOL      0.232237
     41 N4          2.9330   -4.4490   -0.9600 n         1 MOL     -0.379950
     42 C13         4.1380   -4.5600   -1.7750 c3        1 MOL      0.192511
     43 C14         5.4140   -4.2870   -0.9770 c         1 MOL      0.388376
     44 O6          6.4360   -4.8380   -1.3910 o         1 MOL     -0.497164
     45 C15         4.1630   -3.5790   -2.9500 c3        1 MOL     -0.396397
     46 C16         3.7790   -2.2070   -2.5440 c         1 MOL      0.696058
     47 O7          2.6500   -1.7400   -2.8150 o         1 MOL     -0.719633
     48 O8          4.4510   -1.5030   -1.7090 o         1 MOL     -0.719633
     49 H21         2.6710   -3.4940   -0.7920 hn        1 MOL      0.279769
     50 H22         4.1650   -5.5300   -2.2700 h1        1 MOL      0.073501
     51 H23         3.4340   -3.8410   -3.7210 hc        1 MOL      0.122820
     52 H24         5.1990   -3.4720   -3.2800 hc        1 MOL      0.122820
     53 N5          5.2670   -3.6400    0.2360 n         1 MOL     -0.176620
     54 C17         6.4350   -3.4140    1.1060 c3        1 MOL     -0.152958
     55 C18         7.2580   -2.1700    0.8180 c         1 MOL      0.481151
     56 O9          8.3430   -1.9600    1.4520 o         1 MOL     -0.565917
     57 H25         4.3970   -3.1490    0.3750 hn        1 MOL      0.051175
     58 H26         7.0520   -4.3110    1.0370 h1        1 MOL      0.115618
     59 H27         6.1690   -3.3150    2.1570 h1        1 MOL      0.115618
     60 N6          6.7600   -1.2720    0.0080 n         1 MOL      0.022815
     61 C19         7.4050    0.0310   -0.2450 c3        1 MOL     -0.159951
     62 C20         6.4920    1.3290   -0.4590 c         1 MOL      0.712840
     63 O10         5.3290    1.2300   -0.7690 o         1 MOL     -0.599550
     64 C21         8.5040   -0.0960   -1.3170 c3        1 MOL     -0.279177
     65 C22         8.1240   -0.7290   -2.6100 c         1 MOL      0.650682
     66 N7          6.8940   -1.1020   -2.9370 n         1 MOL     -0.752816
     67 O11         9.0040   -0.7940   -3.4680 o         1 MOL     -0.595422
     68 H28         5.8230   -1.3010   -0.3600 hn        1 MOL      0.091997
     69 H29         7.8780    0.2860    0.7020 h1        1 MOL      0.066925
     70 H30         9.3160   -0.7120   -0.9350 hc        1 MOL      0.109590
     71 H31         8.9920    0.8620   -1.5000 hc        1 MOL      0.109590
     72 H32         6.0990   -1.1050   -2.3130 hn        1 MOL      0.341357
     73 H33         6.8390   -1.4540   -3.8860 hn        1 MOL      0.341357
     74 N8          7.0370    2.5380   -0.2340 n         1 MOL     -0.452610
     75 C23         6.4490    3.8010   -0.6830 c3        1 MOL     -0.145647
     76 C24         5.3390    4.3330    0.2040 c         1 MOL      0.721427
     77 O12         5.3960    4.2590    1.4170 o         1 MOL     -0.519553
     78 H34         7.9670    2.6020    0.1530 hn        1 MOL      0.333395
     79 H35         6.0370    3.6970   -1.6920 h1        1 MOL      0.087916
     80 H36         7.2030    4.5790   -0.6800 h1        1 MOL      0.087916
     81 N9          4.2120    4.6900   -0.4520 n         1 MOL     -0.750374
     82 C25         2.8550    4.7650    0.2670 c3        1 MOL      0.324590
     83 C26         2.4130    3.4400    0.8370 c         1 MOL      0.073379
     84 O13         2.9120    2.3370    0.5520 o         1 MOL     -0.346978
     85 C27         1.7770    5.4380   -0.6420 c3        1 MOL     -0.022155
     86 C28         1.9790    6.8710   -0.9930 ca        1 MOL      0.200098
     87 C29         1.8780    7.2420   -2.3550 ca        1 MOL     -0.327227
     88 C30         2.2890    7.7790   -0.0090 ca        1 MOL     -0.327227
     89 C31         2.1180    8.6210   -2.6550 ca        1 MOL     -0.100943
     90 C32         2.5120    9.1390   -0.3210 ca        1 MOL     -0.100943
     91 C33         2.4810    9.5210   -1.6800 ca        1 MOL      0.204254
     92 O14         2.7850   10.7980   -2.0210 oh        1 MOL     -0.449763
     93 H37         4.3040    4.9730   -1.4150 hn        1 MOL      0.336452
     94 H38         3.0070    5.4100    1.1320 h1        1 MOL      0.073890
     95 H39         0.7980    5.4330   -0.1440 hc        1 MOL      0.010454
     96 H40         1.6050    4.9670   -1.6070 hc        1 MOL      0.010454
     97 H41         1.5850    6.4940   -3.0790 ha        1 MOL      0.164297
     98 H42         2.3620    7.3870    1.0020 ha        1 MOL      0.164297
     99 H43         2.1660    8.8900   -3.7000 ha        1 MOL      0.131746
    100 H44         2.7640    9.8840    0.4130 ha        1 MOL      0.131746
    101 H45         2.9740   10.9550   -2.9470 ho        1 MOL      0.358901
    102 N10         1.4130    3.4530    1.7120 n         1 MOL     -0.471851
    103 C34         0.8300    2.4420    2.6120 c3        1 MOL      0.157452
    104 C35         0.1190    1.2750    1.7770 c         1 MOL      0.317221
    105 O15         0.8510    0.4630    1.2720 o         1 MOL     -0.384170
    106 C36         1.9520    1.9890    3.6210 c3        1 MOL      0.215153
    107 C37         1.3360    1.0450    4.7540 c3        1 MOL     -0.250683
    108 C38         2.7750    3.1300    4.1970 c3        1 MOL     -0.216680
    109 C39         0.4900    1.7710    5.8570 c3        1 MOL     -0.285293
    110 H46         1.1860    4.3870    2.0270 hn        1 MOL      0.279647
    111 H47         0.0430    2.9210    3.1950 h1        1 MOL      0.047597
    112 H48         2.6690    1.4110    3.0260 hc        1 MOL      0.026082
    113 H49         2.2070    0.6470    5.2970 hc        1 MOL      0.099268
    114 H50         0.7970    0.2920    4.1910 hc        1 MOL      0.099268
    115 H51         3.5360    2.8430    4.9100 hc        1 MOL      0.069030
    116 H52         3.3030    3.5590    3.3440 hc        1 MOL      0.069030
    117 H53         2.1560    3.8960    4.6550 hc        1 MOL      0.069030
    118 H54        -0.0040    0.9740    6.4300 hc        1 MOL      0.082941
    119 H55         1.2500    2.3030    6.4200 hc        1 MOL      0.082941
    120 H56        -0.2150    2.4780    5.4160 hc        1 MOL      0.082941
    121 N11        -1.1610    1.1080    1.7820 n         1 MOL     -0.299604
    122 C40        -1.9540    0.3260    0.8590 c3        1 MOL     -0.230468
    123 C41        -3.3990    0.7850    0.7810 c         1 MOL      0.661227
    124 O16        -3.9260    1.2530    1.7980 o         1 MOL     -0.510526
    125 C42        -1.8870   -1.1380    1.2540 c3        1 MOL      0.230827
    126 O17        -2.1800   -2.0010    0.2240 oh        1 MOL     -0.751668
    127 H57        -1.6380    1.7910    2.3580 hn        1 MOL      0.256315
    128 H58        -1.4450    0.3950   -0.1010 h1        1 MOL      0.148853
    129 H59        -2.6030   -1.3710    2.0340 h1        1 MOL      0.069124
    130 H60        -0.8510   -1.4110    1.4910 h1        1 MOL      0.069124
    131 H61        -2.9950   -2.4880    0.4130 ho        1 MOL      0.474904
    132 N12        -3.8080    0.6780   -0.5030 n         1 MOL     -0.583578
    133 C43        -5.2200    0.5990   -0.9000 c3        1 MOL      0.221871
    134 C44        -5.5460   -0.3000   -2.0900 c         1 MOL      0.613034
    135 O18        -4.6480   -0.5050   -2.8980 o         1 MOL     -0.554951
    136 C45        -5.7190    2.0530   -0.9890 c3        1 MOL     -0.044073
    137 H62        -3.1260    0.2360   -1.1180 hn        1 MOL      0.278054
    138 H63        -5.7070    0.1370   -0.0340 h1        1 MOL      0.034607
    139 H64        -6.7990    2.0330   -1.1300 hc        1 MOL      0.012158
    140 H65        -5.5060    2.5910   -0.0720 hc        1 MOL      0.012158
    141 H66        -5.2530    2.5620   -1.8350 hc        1 MOL      0.012158
    142 N13        -6.7390   -0.8900   -2.2360 n         1 MOL     -0.730171
    143 C46        -7.9650   -0.7140   -1.4940 c3        1 MOL      0.423047
    144 C47        -8.9470    0.3010   -2.1290 c         1 MOL      0.518526
    145 O19        -8.7770    0.8550   -3.2180 o         1 MOL     -0.549675
    146 C48        -8.6100   -2.1210   -1.4830 c3        1 MOL     -0.372504
    147 H67        -6.7780   -1.4460   -3.0840 hn        1 MOL      0.354844
    148 H68        -7.7680   -0.4460   -0.4550 h1        1 MOL      0.006148
    149 H69        -8.6640   -2.5340   -2.4860 hc        1 MOL      0.105255
    150 H70        -8.0260   -2.7850   -0.8330 hc        1 MOL      0.105255
    151 H71        -9.6610   -2.1010   -1.1890 hc        1 MOL      0.105255
    152 N14       -10.0170    0.7410   -1.4450 n         1 MOL     -0.510992
    153 C49       -10.2400    0.6470   -0.0170 c3        1 MOL      0.008855
    154 C50        -9.3950    1.4720    0.9150 c         1 MOL      0.377605
    155 O20        -9.0710    1.0520    2.0200 o         1 MOL     -0.501430
    156 C51       -11.7000    0.9350    0.2780 c3        1 MOL     -0.098851
    157 C52       -12.5660   -0.3120    0.0570 c3        1 MOL     -0.278009
    158 C53       -14.0380    0.0170    0.0100 c         1 MOL      0.662826
    159 O21       -14.8140   -0.6320    0.7950 o         1 MOL     -0.631185
    160 O22       -14.5990    0.7350   -0.8720 o         1 MOL     -0.631185
    161 H72       -10.5020    1.5280   -1.8520 hn        1 MOL      0.327348
    162 H73       -10.0610   -0.3910    0.2710 h1        1 MOL      0.050571
    163 H74       -12.1040    1.8430   -0.1690 hc        1 MOL      0.076222
    164 H75       -11.7890    1.1170    1.3500 hc        1 MOL      0.076222
    165 H76       -12.3420   -1.0260    0.8500 hc        1 MOL      0.097440
    166 H77       -12.3490   -0.6920   -0.9400 hc        1 MOL      0.097440
    167 N15        -9.1340    2.6820    0.4460 n         1 MOL     -0.207100
    168 C54        -8.6120    3.8320    1.1860 c3        1 MOL     -0.234364
    169 H78        -7.7680    4.2600    0.6440 h1        1 MOL      0.111236
    170 H79        -9.3950    4.5840    1.2900 h1        1 MOL      0.111236
    171 H80        -8.2830    3.5100    2.1740 h1        1 MOL      0.111236
    172 H81        -9.3500    2.9600   -0.5010 hn        1 MOL      0.238005
    173 Ca1         2.6940    0.1760   -0.8880 Ca        1 MOL      1.704219
    174 O23         3.3320    1.2260   -3.1620 oh        1 MOL     -0.821123
    175 H82         2.8690    1.1240   -3.9900 ho        1 MOL      0.415577
    176 H83         4.2330    1.4400   -3.4120 ho        1 MOL      0.415577
    177 O24         0.3120   -1.3990   -1.2170 oh        1 MOL     -0.821123
    178 H84         0.2910   -1.8970   -2.0330 ho        1 MOL      0.415577
    179 H85        -0.5860   -1.4400   -0.8840 ho        1 MOL      0.415577
    180 O25         0.5650    1.5920   -1.6830 oh        1 MOL     -0.821123
    181 H86         0.4700    1.8960   -2.5880 ho        1 MOL      0.415577
    182 H87         0.2300    2.3170   -1.1520 ho        1 MOL      0.415577
@<TRIPOS>BOND
     1    1    2 1   
     2    1    4 1   
     3    1    5 1   
     4    1    6 1   
     5    2    3 2   
     6    2    7 1   
     7    7    8 1   
     8    7   15 1   
     9    8    9 1   
    10    8   11 1   
    11    8   16 1   
    12    9   10 2   
    13    9   19 1   
    14   11   12 1   
    15   11   17 1   
    16   11   18 1   
    17   12   13 1   
    18   12   14 1   
    19   19   20 1   
    20   19   28 1   
    21   20   21 1   
    22   20   23 1   
    23   20   29 1   
    24   21   22 2   
    25   21   41 1   
    26   23   24 1   
    27   23   30 1   
    28   23   31 1   
    29   24   25 1   
    30   24   32 1   
    31   24   33 1   
    32   25   26 1   
    33   25   34 1   
    34   25   35 1   
    35   26   27 1   
    36   26   36 1   
    37   26   37 1   
    38   27   38 1   
    39   27   39 1   
    40   27   40 1   
    41   41   42 1   
    42   41   49 1   
    43   42   43 1   
    44   42   45 1   
    45   42   50 1   
    46   43   44 2   
    47   43   53 1   
    48   45   46 1   
    49   45   51 1   
    50   45   52 1   
    51   46   47 1   
    52   46   48 1   
    53   53   54 1   
    54   53   57 1   
    55   54   55 1   
    56   54   58 1   
    57   54   59 1   
    58   55   56 2   
    59   55   60 1   
    60   60   61 1   
    61   60   68 1   
    62   61   62 1   
    63   61   64 1   
    64   61   69 1   
    65   62   63 2   
    66   62   74 1   
    67   64   65 1   
    68   64   70 1   
    69   64   71 1   
    70   65   66 1   
    71   65   67 2   
    72   66   72 1   
    73   66   73 1   
    74   74   75 1   
    75   74   78 1   
    76   75   76 1   
    77   75   79 1   
    78   75   80 1   
    79   76   77 2   
    80   76   81 1   
    81   81   82 1   
    82   81   93 1   
    83   82   83 1   
    84   82   85 1   
    85   82   94 1   
    86   83   84 2   
    87   83  102 1   
    88   85   86 1   
    89   85   95 1   
    90   85   96 1   
    91   86   87 ar  
    92   86   88 ar  
    93   87   89 ar  
    94   87   97 1   
    95   88   90 ar  
    96   88   98 1   
    97   89   91 ar  
    98   89   99 1   
    99   90   91 ar  
   100   90  100 1   
   101   91   92 1   
   102   92  101 1   
   103  102  103 1   
   104  102  110 1   
   105  103  104 1   
   106  103  106 1   
   107  103  111 1   
   108  104  105 2   
   109  104  121 1   
   110  106  107 1   
   111  106  108 1   
   112  106  112 1   
   113  107  109 1   
   114  107  113 1   
   115  107  114 1   
   116  108  115 1   
   117  108  116 1   
   118  108  117 1   
   119  109  118 1   
   120  109  119 1   
   121  109  120 1   
   122  121  122 1   
   123  121  127 1   
   124  122  123 1   
   125  122  125 1   
   126  122  128 1   
   127  123  124 2   
   128  123  132 1   
   129  125  126 1   
   130  125  129 1   
   131  125  130 1   
   132  126  131 1   
   133  132  133 1   
   134  132  137 1   
   135  133  134 1   
   136  133  136 1   
   137  133  138 1   
   138  134  135 2   
   139  134  142 1   
   140  136  139 1   
   141  136  140 1   
   142  136  141 1   
   143  142  143 1   
   144  142  147 1   
   145  143  144 1   
   146  143  146 1   
   147  143  148 1   
   148  144  145 2   
   149  144  152 1   
   150  146  149 1   
   151  146  150 1   
   152  146  151 1   
   153  152  153 1   
   154  152  161 1   
   155  153  154 1   
   156  153  156 1   
   157  153  162 1   
   158  154  155 2   
   159  154  167 1   
   160  156  157 1   
   161  156  163 1   
   162  156  164 1   
   163  157  158 1   
   164  157  165 1   
   165  157  166 1   
   166  158  159 1   
   167  158  160 1   
   168  167  168 1   
   169  167  172 1   
   170  168  169 1   
   171  168  170 1   
   172  168  171 1   
   173  174  175 1   
   174  174  176 1   
   175  177  178 1   
   176  177  179 1   
   177  180  181 1   
   178  180  182 1   
@<TRIPOS>SUBSTRUCTURE
     1 MOL         1 TEMP              0 ****  ****    0 ROOT
