@<TRIPOS>MOLECULE
MOL
  178   175     1     0     0
SMALL
resp


@<TRIPOS>ATOM
      1 C1          2.7560   -1.7020    4.2450 c3        1 MOL     -0.263002
      2 C2          3.8990   -1.1320    3.5190 c         1 MOL      0.705147
      3 O1          3.9830   -1.2430    2.3030 o         1 MOL     -0.526090
      4 H1          2.6690   -1.2220    5.2200 hc        1 MOL      0.062857
      5 H2          1.8420   -1.5320    3.6750 hc        1 MOL      0.062857
      6 H3          2.9070   -2.7730    4.3800 hc        1 MOL      0.062857
      7 N1          4.8270   -0.6120    4.2880 n         1 MOL     -0.640410
      8 C3          5.8590    0.2850    3.7410 c3        1 MOL      0.224706
      9 C4          6.7350   -0.3460    2.6440 c         1 MOL      0.822728
     10 O2          6.7810    0.1520    1.5520 o         1 MOL     -0.560845
     11 C5          6.5800    0.8920    4.9440 c3        1 MOL     -0.262630
     12 C6          7.5950    1.8950    4.5320 c         1 MOL      0.709500
     13 O3          7.1910    2.7980    3.7410 o         1 MOL     -0.718779
     14 O4          8.7720    1.7160    4.6840 o         1 MOL     -0.718779
     15 H4          4.7470   -0.6020    5.2900 hn        1 MOL      0.322365
     16 H5          5.4780    1.1200    3.1400 h1        1 MOL      0.007936
     17 H6          7.0410    0.0900    5.5270 hc        1 MOL      0.000008
     18 H7          5.8260    1.3470    5.5910 hc        1 MOL      0.000008
     19 N2          7.2580   -1.5670    2.8380 n         1 MOL     -0.632124
     20 C7          7.9870   -2.3880    1.8350 c3        1 MOL      0.313340
     21 C8          7.2150   -2.8360    0.6040 c         1 MOL      0.294097
     22 O5          7.7190   -3.2890   -0.4210 o         1 MOL     -0.466691
     23 C9          9.4060   -1.7280    1.6120 c3        1 MOL     -0.305059
     24 H8          7.2570   -1.9320    3.7830 hn        1 MOL      0.269544
     25 H9          8.2080   -3.3270    2.3400 h1        1 MOL      0.028008
     26 H10         9.1910   -0.6950    1.3510 hc        1 MOL      0.074089
     27 H11        10.0140   -1.8300    2.5100 hc        1 MOL      0.074089
     28 H12         9.9040   -2.3010    0.8280 hc        1 MOL      0.074089
     29 N3          5.8700   -2.7840    0.7040 n         1 MOL     -0.418027
     30 C10         5.0190   -2.8690   -0.5260 c3        1 MOL      0.390089
     31 C11         5.2270   -1.7330   -1.5750 c         1 MOL      0.200414
     32 O6          5.3870   -2.0060   -2.7970 o         1 MOL     -0.519434
     33 C12         4.9960   -4.2780   -1.0310 c3        1 MOL     -0.268736
     34 C13         3.6870   -4.6250   -1.6720 c         1 MOL      0.783605
     35 O7          3.7720   -5.5690   -2.5320 o         1 MOL     -0.737823
     36 O8          2.6020   -4.1390   -1.2410 o         1 MOL     -0.737823
     37 H13         5.4690   -2.3860    1.5410 hn        1 MOL      0.194066
     38 H14         3.9980   -2.7030   -0.1700 h1        1 MOL      0.019719
     39 H15         5.0730   -4.9250   -0.1560 hc        1 MOL      0.047007
     40 H16         5.8580   -4.4950   -1.6710 hc        1 MOL      0.047007
     41 N4          5.5110   -0.5390   -1.0740 n         1 MOL      0.151497
     42 C14         5.9460    0.6310   -1.7910 c3        1 MOL     -0.205926
     43 C15         4.8910    1.4110   -2.6820 c         1 MOL      0.545149
     44 O9          5.3630    2.3390   -3.3170 o         1 MOL     -0.583175
     45 H17         5.4540   -0.4490   -0.0680 hn        1 MOL      0.026569
     46 H18         6.8280    0.4270   -2.3870 h1        1 MOL      0.104800
     47 H19         6.2670    1.3520   -1.0320 h1        1 MOL      0.104800
     48 N5          3.5940    1.1400   -2.6730 n         1 MOL     -0.208974
     49 C16         2.4990    1.9260   -3.2970 c3        1 MOL     -0.166530
     50 C17         2.3650    3.4280   -2.8210 c         1 MOL      0.622603
     51 O10         2.4230    3.6410   -1.5740 o         1 MOL     -0.504823
     52 C18         1.1970    1.1370   -3.1220 c3        1 MOL     -0.533677
     53 C19         1.3040   -0.1570   -3.8960 c         1 MOL      0.810392
     54 N6          0.9390   -0.0580   -5.1680 n         1 MOL     -0.812210
     55 O11         1.6300   -1.2650   -3.3810 o         1 MOL     -0.624286
     56 H20         3.3880    0.3780   -2.0440 hn        1 MOL      0.175382
     57 H21         2.5840    1.8290   -4.3790 h1        1 MOL      0.074037
     58 H22         0.3670    1.7690   -3.4420 hc        1 MOL      0.213754
     59 H23         1.0700    0.9550   -2.0620 hc        1 MOL      0.213754
     60 H24         0.7010    0.8480   -5.5440 hn        1 MOL      0.366282
     61 H25         0.8870   -0.8900   -5.7250 hn        1 MOL      0.366282
     62 N7          2.1950    4.4100   -3.7370 n         1 MOL     -0.438737
     63 C20         1.8790    5.8320   -3.3970 c3        1 MOL     -0.156254
     64 C21         0.4240    6.1900   -3.0100 c         1 MOL      0.550568
     65 O12        -0.4780    5.8300   -3.7440 o         1 MOL     -0.488683
     66 H26         2.1370    4.1330   -4.7110 hn        1 MOL      0.295801
     67 H27         2.2140    6.4420   -4.2350 h1        1 MOL      0.115037
     68 H28         2.5580    5.9780   -2.5510 h1        1 MOL      0.115037
     69 N8          0.2190    7.0240   -1.9530 n         1 MOL     -0.542876
     70 C22        -1.1600    7.2820   -1.3640 c3        1 MOL      0.060083
     71 C23        -1.7250    6.0970   -0.5980 c         1 MOL      0.482956
     72 O13        -2.8960    5.6880   -0.7640 o         1 MOL     -0.547037
     73 C24        -1.0840    8.5490   -0.5120 c3        1 MOL      0.304456
     74 C25        -2.3230    8.9150    0.3210 c3        1 MOL     -0.419707
     75 O14        -0.0860    8.4230    0.4060 oh        1 MOL     -0.613521
     76 H29         1.0360    7.5080   -1.6010 hn        1 MOL      0.288221
     77 H30        -1.9010    7.5010   -2.1430 h1        1 MOL      0.073192
     78 H31        -0.9150    9.3540   -1.2390 h1        1 MOL      0.012771
     79 H32         0.2210    9.2390    0.8100 ho        1 MOL      0.410749
     80 H33        -2.1750    9.9740    0.5500 hc        1 MOL      0.106618
     81 H34        -3.2530    8.8670   -0.2490 hc        1 MOL      0.106618
     82 H35        -2.5150    8.3490    1.2300 hc        1 MOL      0.106618
     83 N9         -0.8960    5.3590    0.2400 n         1 MOL     -0.100317
     84 C26        -1.3170    4.2400    1.0460 c3        1 MOL     -0.326736
     85 C27        -1.4070    3.0610    0.1110 c         1 MOL      0.538283
     86 O15        -0.7600    2.9540   -0.9260 o         1 MOL     -0.455413
     87 C28        -0.3140    4.1280    2.2270 c3        1 MOL      0.279000
     88 C29         1.0780    3.6450    1.8080 c3        1 MOL     -0.028099
     89 C30        -0.3550    5.4420    3.0390 c3        1 MOL     -0.486161
     90 C31         1.9330    3.5520    3.0140 c3        1 MOL     -0.326488
     91 H36         0.0810    5.5990    0.1900 hn        1 MOL      0.173044
     92 H37        -2.3070    4.4010    1.4680 h1        1 MOL      0.103826
     93 H38        -0.7090    3.3280    2.8600 hc        1 MOL     -0.041822
     94 H39         1.4280    4.4470    1.1440 hc        1 MOL      0.094025
     95 H40         0.9810    2.6880    1.2850 hc        1 MOL      0.094025
     96 H41        -0.0820    6.3040    2.4300 hc        1 MOL      0.117221
     97 H42        -1.3800    5.6780    3.2840 hc        1 MOL      0.117221
     98 H43         0.2720    5.2700    3.9220 hc        1 MOL      0.117221
     99 H44         1.4550    2.9090    3.7590 hc        1 MOL      0.089428
    100 H45         2.8980    3.2330    2.6350 hc        1 MOL      0.089428
    101 H46         2.0960    4.4920    3.5350 hc        1 MOL      0.089428
    102 N10        -2.0950    2.0500    0.5950 n         1 MOL     -0.441024
    103 C32        -2.1620    0.7330   -0.0750 c3        1 MOL      0.012509
    104 C33        -3.5750    0.0100    0.0380 c         1 MOL      0.616965
    105 O16        -3.6430   -1.2130   -0.1480 o         1 MOL     -0.515810
    106 C34        -1.0110   -0.1940    0.3980 c3        1 MOL     -0.393412
    107 C35        -0.5110   -1.3290   -0.4660 c         1 MOL      0.560535
    108 O17         0.4290   -2.0370   -0.0490 o         1 MOL     -0.654891
    109 O18        -0.9190   -1.5050   -1.6260 o         1 MOL     -0.654891
    110 H47        -2.5950    2.2040    1.4540 hn        1 MOL      0.293255
    111 H48        -1.9850    0.9440   -1.1340 h1        1 MOL      0.077577
    112 H49        -1.2260   -0.5450    1.4130 hc        1 MOL      0.159022
    113 H50        -0.1330    0.4360    0.5170 hc        1 MOL      0.159022
    114 N11        -4.5960    0.8060    0.3700 n         1 MOL     -0.511668
    115 C36        -6.0570    0.4240    0.3600 c3        1 MOL      0.401582
    116 C37        -6.3030   -0.9310    1.0580 c         1 MOL     -0.012777
    117 O19        -6.0990   -1.0160    2.2830 o         1 MOL     -0.366564
    118 C38        -6.9250    1.4740    1.0770 c3        1 MOL     -0.245275
    119 C39        -8.3920    1.1940    0.7630 ca        1 MOL      0.051435
    120 C40        -9.0200    1.6760   -0.3940 ca        1 MOL     -0.121791
    121 C41        -9.1460    0.3350    1.6450 ca        1 MOL     -0.121791
    122 C42       -10.3660    1.4660   -0.5980 ca        1 MOL     -0.127518
    123 C43       -10.5180    0.0930    1.4200 ca        1 MOL     -0.127518
    124 C44       -11.1360    0.6640    0.2940 ca        1 MOL     -0.127348
    125 H51        -4.3490    1.7480    0.6340 hn        1 MOL      0.238454
    126 H52        -6.3640    0.4240   -0.6820 h1        1 MOL     -0.031164
    127 H53        -6.7270    2.4670    0.6680 hc        1 MOL      0.102413
    128 H54        -6.7890    1.4730    2.1650 hc        1 MOL      0.102413
    129 H55        -8.5150    2.2670   -1.1420 ha        1 MOL      0.112506
    130 H56        -8.5620   -0.1750    2.4030 ha        1 MOL      0.112506
    131 H57       -10.8630    1.9460   -1.4200 ha        1 MOL      0.112429
    132 H58       -10.9780   -0.7030    1.9840 ha        1 MOL      0.112429
    133 H59       -12.1500    0.3580    0.0820 ha        1 MOL      0.107741
    134 N12        -6.8590   -1.9880    0.3820 n         1 MOL      0.146086
    135 C45        -7.0050   -3.3350    0.9580 c3        1 MOL      0.190204
    136 C46        -5.8140   -3.8460    1.8490 c         1 MOL      0.175487
    137 O20        -6.0790   -4.5170    2.8590 o         1 MOL     -0.543248
    138 C47        -7.1860   -4.1960   -0.2090 c3        1 MOL      0.035202
    139 C48        -8.1550   -3.2800   -0.9880 c3        1 MOL     -0.083023
    140 C49        -7.4730   -1.8680   -0.9220 c3        1 MOL     -0.111666
    141 H60        -7.9320   -3.2910    1.5330 h1        1 MOL      0.014155
    142 H61        -6.2440   -4.3180   -0.7500 hc        1 MOL      0.006183
    143 H62        -7.7180   -5.1070    0.0600 hc        1 MOL      0.006183
    144 H63        -8.2100   -3.6180   -2.0290 hc        1 MOL      0.021391
    145 H64        -9.1350   -3.3450   -0.5240 hc        1 MOL      0.021391
    146 H65        -6.7440   -1.7970   -1.7230 h1        1 MOL      0.068954
    147 H66        -8.2940   -1.1410   -0.9350 h1        1 MOL      0.068954
    148 N13        -4.5390   -3.5440    1.5950 n         1 MOL      0.139731
    149 C50        -3.3320   -3.8320    2.4240 c3        1 MOL     -0.199684
    150 C51        -3.0230   -2.7590    3.4940 c         1 MOL      0.370288
    151 O21        -2.0160   -2.9650    4.1760 o         1 MOL     -0.547099
    152 C52        -2.1640   -4.0060    1.4750 c3        1 MOL      0.006351
    153 C53        -2.3780   -5.1480    0.4370 c3        1 MOL     -0.020737
    154 C54        -1.5660   -4.9730   -0.8120 c         1 MOL      0.632180
    155 O22        -0.3510   -5.3180   -0.7960 o         1 MOL     -0.715018
    156 O23        -2.0120   -4.3770   -1.8580 o         1 MOL     -0.715018
    157 H67        -4.4690   -2.8780    0.8430 hn        1 MOL      0.055606
    158 H68        -3.2980   -4.7750    2.9590 h1        1 MOL      0.131360
    159 H69        -1.2470   -4.1610    2.0350 hc        1 MOL      0.102543
    160 H70        -2.0200   -3.0530    0.9580 hc        1 MOL      0.102543
    161 H71        -3.4190   -5.2170    0.0950 hc        1 MOL     -0.040301
    162 H72        -2.2100   -6.1140    0.9040 hc        1 MOL     -0.040301
    163 N14        -3.7890   -1.7340    3.7220 n         1 MOL     -0.047956
    164 C55        -3.5320   -0.6320    4.6730 c3        1 MOL     -0.183263
    165 H73        -2.6320   -0.8510    5.2490 h1        1 MOL      0.075417
    166 H74        -3.3920    0.2990    4.1230 h1        1 MOL      0.075417
    167 H75        -4.3800   -0.5300    5.3500 h1        1 MOL      0.075417
    168 H76        -4.6160   -1.6800    3.1460 hn        1 MOL      0.089577
    169 Ca1         0.4170   -3.5320   -2.7000 Ca        1 MOL      1.776024
    170 O24         1.9190   -3.9430   -4.8260 oh        1 MOL     -0.871615
    171 H77         1.8250   -3.7770   -5.7580 ho        1 MOL      0.414594
    172 H78         2.8600   -4.0620   -4.6860 ho        1 MOL      0.414594
    173 O25        -1.2050   -2.9850   -4.7500 oh        1 MOL     -0.871615
    174 H79        -1.9570   -2.4130   -4.6420 ho        1 MOL      0.414594
    175 H80        -1.2210   -3.2390   -5.6800 ho        1 MOL      0.414594
    176 O26         0.3050   -5.9800   -3.5600 oh        1 MOL     -0.871615
    177 H81         0.8840   -6.1220   -4.3150 ho        1 MOL      0.414594
    178 H82        -0.2640   -6.7470   -3.5440 ho        1 MOL      0.414594
@<TRIPOS>BOND
     1    1    2 1   
     2    1    4 1   
     3    1    5 1   
     4    1    6 1   
     5    2    3 2   
     6    2    7 1   
     7    7    8 1   
     8    7   15 1   
     9    8    9 1   
    10    8   11 1   
    11    8   16 1   
    12    9   10 2   
    13    9   19 1   
    14   11   12 1   
    15   11   17 1   
    16   11   18 1   
    17   12   13 1   
    18   12   14 1   
    19   19   20 1   
    20   19   24 1   
    21   20   21 1   
    22   20   23 1   
    23   20   25 1   
    24   21   22 2   
    25   21   29 1   
    26   23   26 1   
    27   23   27 1   
    28   23   28 1   
    29   29   30 1   
    30   29   37 1   
    31   30   31 1   
    32   30   33 1   
    33   30   38 1   
    34   31   32 2   
    35   31   41 1   
    36   33   34 1   
    37   33   39 1   
    38   33   40 1   
    39   34   35 1   
    40   34   36 1   
    41   41   42 1   
    42   41   45 1   
    43   42   43 1   
    44   42   46 1   
    45   42   47 1   
    46   43   44 2   
    47   43   48 1   
    48   48   49 1   
    49   48   56 1   
    50   49   50 1   
    51   49   52 1   
    52   49   57 1   
    53   50   51 2   
    54   50   62 1   
    55   52   53 1   
    56   52   58 1   
    57   52   59 1   
    58   53   54 1   
    59   53   55 2   
    60   54   60 1   
    61   54   61 1   
    62   62   63 1   
    63   62   66 1   
    64   63   64 1   
    65   63   67 1   
    66   63   68 1   
    67   64   65 2   
    68   64   69 1   
    69   69   70 1   
    70   69   76 1   
    71   70   71 1   
    72   70   73 1   
    73   70   77 1   
    74   71   72 2   
    75   71   83 1   
    76   73   74 1   
    77   73   75 1   
    78   73   78 1   
    79   74   80 1   
    80   74   81 1   
    81   74   82 1   
    82   75   79 1   
    83   83   84 1   
    84   83   91 1   
    85   84   85 1   
    86   84   87 1   
    87   84   92 1   
    88   85   86 2   
    89   85  102 1   
    90   87   88 1   
    91   87   89 1   
    92   87   93 1   
    93   88   90 1   
    94   88   94 1   
    95   88   95 1   
    96   89   96 1   
    97   89   97 1   
    98   89   98 1   
    99   90   99 1   
   100   90  100 1   
   101   90  101 1   
   102  102  103 1   
   103  102  110 1   
   104  103  104 1   
   105  103  106 1   
   106  103  111 1   
   107  104  105 2   
   108  104  114 1   
   109  106  107 1   
   110  106  112 1   
   111  106  113 1   
   112  107  108 1   
   113  107  109 1   
   114  114  115 1   
   115  114  125 1   
   116  115  116 1   
   117  115  118 1   
   118  115  126 1   
   119  116  117 2   
   120  116  134 1   
   121  118  119 1   
   122  118  127 1   
   123  118  128 1   
   124  119  120 ar  
   125  119  121 ar  
   126  120  122 ar  
   127  120  129 1   
   128  121  123 ar  
   129  121  130 1   
   130  122  124 ar  
   131  122  131 1   
   132  123  124 ar  
   133  123  132 1   
   134  124  133 1   
   135  134  135 1   
   136  134  140 1   
   137  135  136 1   
   138  135  138 1   
   139  135  141 1   
   140  136  137 2   
   141  136  148 1   
   142  138  139 1   
   143  138  142 1   
   144  138  143 1   
   145  139  140 1   
   146  139  144 1   
   147  139  145 1   
   148  140  146 1   
   149  140  147 1   
   150  148  149 1   
   151  148  157 1   
   152  149  150 1   
   153  149  152 1   
   154  149  158 1   
   155  150  151 2   
   156  150  163 1   
   157  152  153 1   
   158  152  159 1   
   159  152  160 1   
   160  153  154 1   
   161  153  161 1   
   162  153  162 1   
   163  154  155 1   
   164  154  156 1   
   165  163  164 1   
   166  163  168 1   
   167  164  165 1   
   168  164  166 1   
   169  164  167 1   
   170  170  171 1   
   171  170  172 1   
   172  173  174 1   
   173  173  175 1   
   174  176  177 1   
   175  176  178 1   
@<TRIPOS>SUBSTRUCTURE
     1 MOL         1 TEMP              0 ****  ****    0 ROOT
