@<TRIPOS>MOLECULE
MOL
  181   177     1     0     0
SMALL
resp


@<TRIPOS>ATOM
      1 C1         -8.1560   -6.0830   -3.5310 c3        1 MOL     -0.283973
      2 C2         -7.7150   -5.4030   -2.2640 c         1 MOL      0.647267
      3 O1         -6.6970   -5.8430   -1.7000 o         1 MOL     -0.552037
      4 H1         -7.3120   -6.6160   -3.9690 hc        1 MOL      0.068046
      5 H2         -8.9530   -6.7910   -3.3060 hc        1 MOL      0.068046
      6 H3         -8.5190   -5.3370   -4.2380 hc        1 MOL      0.068046
      7 N1         -8.3930   -4.3040   -1.7700 n         1 MOL     -0.421140
      8 C3         -9.6050   -3.6950   -2.3050 c3        1 MOL      0.047254
      9 C4        -10.5920   -3.2070   -1.1870 c         1 MOL      0.387669
     10 O2        -10.4160   -3.7170   -0.0310 o         1 MOL     -0.468866
     11 C5         -9.1910   -2.4510   -3.1920 c3        1 MOL     -0.247396
     12 C6         -8.3640   -1.4810   -2.3720 c         1 MOL      0.903620
     13 O3         -7.1370   -1.4310   -2.5360 o         1 MOL     -0.758400
     14 O4         -8.8840   -0.5820   -1.6530 o         1 MOL     -0.758400
     15 H4         -8.1810   -4.0020   -0.8310 hn        1 MOL      0.307071
     16 H5        -10.1300   -4.4310   -2.9090 h1        1 MOL      0.068173
     17 H6        -10.0090   -1.8830   -3.6480 hc        1 MOL      0.033670
     18 H7         -8.6420   -2.8370   -4.0460 hc        1 MOL      0.033670
     19 N2        -11.6100   -2.3420   -1.3580 n         1 MOL     -0.456580
     20 C7        -12.5800   -1.7600   -0.3930 c3        1 MOL      0.422572
     21 C8        -11.8420   -1.1930    0.8620 c         1 MOL      0.311075
     22 O5        -12.4140   -1.3050    1.9420 o         1 MOL     -0.523374
     23 C9        -13.7200   -2.8280   -0.1630 c3        1 MOL     -0.337310
     24 H8        -11.7430   -2.0370   -2.3130 hn        1 MOL      0.242097
     25 H9        -13.1120   -0.8980   -0.8050 h1        1 MOL     -0.024821
     26 H10       -14.1670   -3.0180   -1.1500 hc        1 MOL      0.083714
     27 H11       -13.2690   -3.7480    0.2210 hc        1 MOL      0.083714
     28 H12       -14.4700   -2.5290    0.5720 hc        1 MOL      0.083714
     29 N3        -10.6510   -0.6290    0.7140 n         1 MOL     -0.192830
     30 C10        -9.8960   -0.2370    1.8480 c3        1 MOL      0.036983
     31 C11        -9.1230    1.0760    1.5140 c         1 MOL      0.585773
     32 O6         -8.8250    1.3510    0.3540 o         1 MOL     -0.552933
     33 C12        -8.8840   -1.3330    2.2930 c3        1 MOL     -0.305913
     34 C13        -7.7550   -1.6950    1.2760 c         1 MOL      0.697193
     35 O7         -7.6140   -2.8840    0.9730 o         1 MOL     -0.652480
     36 O8         -6.9160   -0.8260    0.9140 o         1 MOL     -0.652480
     37 H13       -10.2640   -0.5380   -0.2150 hn        1 MOL      0.098411
     38 H14       -10.5280    0.0770    2.6750 h1        1 MOL      0.042326
     39 H15        -9.4160   -2.2490    2.5280 hc        1 MOL      0.104113
     40 H16        -8.5200   -1.0760    3.2890 hc        1 MOL      0.104113
     41 N4         -8.6960    1.8450    2.5790 n         1 MOL     -0.560507
     42 C14        -8.0720    3.1540    2.4340 c3        1 MOL     -0.164392
     43 C15        -6.6940    3.2440    1.7490 c         1 MOL      0.863244
     44 O9         -6.1960    2.2670    1.1880 o         1 MOL     -0.716809
     45 H17        -8.7060    1.5650    3.5450 hn        1 MOL      0.361861
     46 H18        -7.9460    3.5680    3.4390 h1        1 MOL      0.098240
     47 H19        -8.6800    3.8290    1.8190 h1        1 MOL      0.098240
     48 N5         -6.2010    4.4790    1.5990 n         1 MOL     -0.725721
     49 C16        -4.8700    4.7590    0.9470 c3        1 MOL      0.425001
     50 C17        -3.6770    3.9390    1.5700 c         1 MOL      0.480115
     51 O10        -3.7500    3.6830    2.7520 o         1 MOL     -0.527060
     52 C18        -4.5230    6.2570    1.1530 c3        1 MOL     -0.386564
     53 C19        -3.3300    6.8010    0.4790 c         1 MOL      0.686928
     54 N6         -2.9830    8.0050    0.8500 n         1 MOL     -0.777000
     55 O11        -2.7070    6.1730   -0.3220 o         1 MOL     -0.547702
     56 H20        -6.6810    5.1650    2.1610 hn        1 MOL      0.295421
     57 H21        -5.0020    4.4890   -0.0970 h1        1 MOL     -0.062668
     58 H22        -4.2780    6.3780    2.2130 hc        1 MOL      0.102895
     59 H23        -5.4190    6.8720    1.0040 hc        1 MOL      0.102895
     60 H24        -3.5040    8.5310    1.5330 hn        1 MOL      0.365327
     61 H25        -2.2370    8.4680    0.3420 hn        1 MOL      0.365327
     62 N7         -2.6730    3.5290    0.8000 n         1 MOL     -0.327425
     63 C20        -1.5780    2.6160    1.1630 c3        1 MOL     -0.142846
     64 C21        -1.6470    1.1800    0.5900 c         1 MOL      0.768130
     65 O12        -2.4770    0.8680   -0.2210 o         1 MOL     -0.556587
     66 H26        -2.6710    3.7910   -0.1780 hn        1 MOL      0.262921
     67 H27        -1.5730    2.3830    2.2300 h1        1 MOL      0.128537
     68 H28        -0.6650    3.0630    0.7700 h1        1 MOL      0.128537
     69 N8         -0.7720    0.2230    0.9750 n         1 MOL     -0.716192
     70 C22         0.2650    0.4010    2.0090 c3        1 MOL     -0.071252
     71 C23         1.6820    0.2860    1.5350 c         1 MOL      0.605967
     72 O13         2.6570    0.5540    2.2250 o         1 MOL     -0.586952
     73 C24         0.0020   -0.6650    3.0940 c3        1 MOL      0.419216
     74 C25        -1.1120   -0.4270    4.0800 c3        1 MOL     -0.294537
     75 O14        -0.1360   -1.9240    2.4420 oh        1 MOL     -0.608807
     76 H29        -0.9510   -0.7320    0.7000 hn        1 MOL      0.353947
     77 H30         0.1480    1.3610    2.5090 h1        1 MOL      0.061154
     78 H31         0.8990   -0.6890    3.7230 h1        1 MOL      0.034543
     79 H32        -1.0560   -2.0520    2.2320 ho        1 MOL      0.395435
     80 H33        -0.8900    0.3210    4.8450 hc        1 MOL      0.072812
     81 H34        -1.9430    0.0010    3.5250 hc        1 MOL      0.072812
     82 H35        -1.4770   -1.3690    4.4790 hc        1 MOL      0.072812
     83 N9          1.8960   -0.1280    0.2920 n         1 MOL     -0.433682
     84 C26         3.2350   -0.0630   -0.3720 c3        1 MOL      0.008135
     85 C27         3.0690    0.6340   -1.7200 c         1 MOL      0.572568
     86 O15         2.0910    0.2820   -2.3680 o         1 MOL     -0.605580
     87 C28         3.7710   -1.5190   -0.5750 c3        1 MOL      0.052411
     88 C29         4.0510   -2.2030    0.8290 c3        1 MOL     -0.238501
     89 C30         5.0330   -1.7300   -1.3850 c3        1 MOL     -0.228594
     90 C31         3.9180   -3.7170    0.7390 c3        1 MOL     -0.133245
     91 H36         1.1580   -0.5560   -0.2450 hn        1 MOL      0.287634
     92 H37         3.9150    0.4380    0.3130 h1        1 MOL      0.144502
     93 H38         2.9260   -2.0470   -1.0170 hc        1 MOL      0.040518
     94 H39         3.2880   -1.9870    1.5770 hc        1 MOL      0.125648
     95 H40         5.0580   -2.0300    1.1900 hc        1 MOL      0.125648
     96 H41         4.8090   -1.4410   -2.4080 hc        1 MOL      0.070213
     97 H42         5.8840   -1.2350   -0.9320 hc        1 MOL      0.070213
     98 H43         5.3270   -2.7810   -1.4220 hc        1 MOL      0.070213
     99 H44         4.1670   -4.1100    1.7200 hc        1 MOL      0.030074
    100 H45         2.9060   -4.0480    0.4730 hc        1 MOL      0.030074
    101 H46         4.6510   -4.0430    0.0140 hc        1 MOL      0.030074
    102 N10         3.8240    1.6500   -2.1390 n         1 MOL     -0.439831
    103 C32         4.8580    2.4280   -1.4170 c3        1 MOL      0.056959
    104 C33         6.2890    1.9170   -1.7290 c         1 MOL      0.577589
    105 O16         6.4590    1.0090   -2.6060 o         1 MOL     -0.587009
    106 C34         4.5800    3.8750   -1.8740 c3        1 MOL     -0.156561
    107 C35         5.2610    4.9500   -1.0410 c         1 MOL      0.720504
    108 O17         5.1700    4.8660    0.2160 o         1 MOL     -0.726842
    109 O18         5.8120    5.8420   -1.6420 o         1 MOL     -0.726842
    110 H47         3.4840    2.1730   -2.9220 hn        1 MOL      0.269238
    111 H48         4.7530    2.3360   -0.3390 h1        1 MOL      0.032900
    112 H49         3.5160    4.0560   -1.7740 hc        1 MOL      0.024448
    113 H50         4.8660    4.0950   -2.9000 hc        1 MOL      0.024448
    114 N11         7.2600    2.3540   -0.9430 n         1 MOL     -0.584724
    115 C36         8.6240    1.7490   -0.9550 c3        1 MOL      0.469790
    116 C37         9.1540    1.8410    0.5280 c         1 MOL      0.275718
    117 O19         8.9140    2.8430    1.1380 o         1 MOL     -0.476052
    118 C38         9.4490    2.3580   -2.0240 c3        1 MOL     -0.286506
    119 C39        10.8900    1.8920   -2.0640 ca        1 MOL      0.110385
    120 C40        11.8270    2.5890   -1.2560 ca        1 MOL     -0.144780
    121 C41        11.3080    0.8410   -2.9260 ca        1 MOL     -0.144780
    122 C42        13.1690    2.4010   -1.4980 ca        1 MOL     -0.098449
    123 C43        12.6680    0.5920   -3.0620 ca        1 MOL     -0.098449
    124 C44        13.6140    1.3600   -2.3830 ca        1 MOL     -0.189076
    125 H51         7.0960    3.0820   -0.2610 hn        1 MOL      0.317101
    126 H52         8.5120    0.7050   -1.2650 h1        1 MOL     -0.038250
    127 H53         9.4240    3.4220   -1.7800 hc        1 MOL      0.096699
    128 H54         9.0510    2.1430   -3.0250 hc        1 MOL      0.096699
    129 H55        11.4790    3.3870   -0.6190 ha        1 MOL      0.125767
    130 H56        10.6740    0.3040   -3.6130 ha        1 MOL      0.125767
    131 H57        13.8440    2.9550   -0.8630 ha        1 MOL      0.098218
    132 H58        13.0300   -0.1200   -3.7950 ha        1 MOL      0.098218
    133 H59        14.6470    1.0520   -2.3760 ha        1 MOL      0.113790
    134 N12         9.9520    0.8540    0.9960 n         1 MOL     -0.004113
    135 C45        10.4640   -0.3550    0.3490 c3        1 MOL      0.183297
    136 C46         9.3280   -1.4030    0.3920 c         1 MOL      0.637720
    137 O20         8.2030   -1.0730    0.5960 o         1 MOL     -0.526231
    138 C47        11.7280   -0.6630    1.0100 c3        1 MOL     -0.118746
    139 C48        11.4030   -0.3800    2.4580 c3        1 MOL     -0.019027
    140 C49        10.6250    0.8940    2.2660 c3        1 MOL     -0.013550
    141 H60        10.7490   -0.0580   -0.6620 h1        1 MOL     -0.083607
    142 H61        12.0540   -1.6760    0.7730 hc        1 MOL      0.027995
    143 H62        12.4640    0.0550    0.6540 hc        1 MOL      0.027995
    144 H63        10.7800   -1.2240    2.7780 hc        1 MOL      0.026585
    145 H64        12.2960   -0.2910    3.0690 hc        1 MOL      0.026585
    146 H65         9.8810    1.0490    3.0390 h1        1 MOL      0.029795
    147 H66        11.3020    1.7470    2.2840 h1        1 MOL      0.029795
    148 N13         9.6280   -2.7490    0.2220 n         1 MOL     -0.940074
    149 C50         8.5940   -3.7510    0.3990 c3        1 MOL      0.875819
    150 C51         9.0800   -5.0620   -0.2820 c         1 MOL      0.108047
    151 O21         9.2290   -6.1330    0.2810 o         1 MOL     -0.439019
    152 C52         8.4030   -4.0020    1.8650 c3        1 MOL     -0.445506
    153 C53         7.1460   -4.7790    2.1820 c3        1 MOL     -0.109981
    154 C54         7.1040   -5.3110    3.5750 c         1 MOL      0.801623
    155 O22         6.8510   -6.4930    3.7100 o         1 MOL     -0.737787
    156 O23         7.3630   -4.6010    4.5770 o         1 MOL     -0.737787
    157 H67        10.5620   -3.1280    0.2060 hn        1 MOL      0.389015
    158 H68         7.6630   -3.4650   -0.0800 h1        1 MOL     -0.033910
    159 H69         8.2460   -3.0480    2.3680 hc        1 MOL      0.100935
    160 H70         9.2430   -4.5850    2.2310 hc        1 MOL      0.100935
    161 H71         6.9700   -5.5870    1.4670 hc        1 MOL      0.005976
    162 H72         6.3610   -4.0340    2.0350 hc        1 MOL      0.005976
    163 N14         9.4250   -5.0340   -1.5880 n         1 MOL     -0.251997
    164 C55         9.3610   -4.0530   -2.6040 c3        1 MOL     -0.068765
    165 H73         9.2760   -4.5410   -3.5740 h1        1 MOL      0.048544
    166 H74         8.4930   -3.4160   -2.4400 h1        1 MOL      0.048544
    167 H75        10.2670   -3.4470   -2.5810 h1        1 MOL      0.048544
    168 H76         9.8740   -5.9240   -1.7680 hn        1 MOL      0.241538
    169 Ca1        -6.7650    0.8220   -1.0910 Ca        1 MOL      1.778924
    170 O24        -7.2610    1.4040   -3.7760 oh        1 MOL     -0.822721
    171 H77        -6.7880    2.0330   -4.3180 ho        1 MOL      0.391712
    172 H78        -7.9910    1.1170   -4.3320 ho        1 MOL      0.391712
    173 O25        -4.6790   -0.7940   -0.5880 oh        1 MOL     -0.822721
    174 H79        -4.7400   -1.5590   -0.0270 ho        1 MOL      0.391712
    175 H80        -3.8330   -0.3980   -0.3560 ho        1 MOL      0.391712
    176 O26        -4.5290    1.8510   -1.8230 oh        1 MOL     -0.822721
    177 H81        -4.4380    2.7270   -2.1990 ho        1 MOL      0.391712
    178 H82        -3.6360    1.5190   -1.7670 ho        1 MOL      0.391712
    179 O27        -7.7040    3.3050   -1.5510 oh        1 MOL     -0.822721
    180 H83        -7.9220    4.1390   -1.1200 ho        1 MOL      0.391712
    181 H84        -7.9140    3.4580   -2.4750 ho        1 MOL      0.391712
@<TRIPOS>BOND
     1    1    2 1   
     2    1    4 1   
     3    1    5 1   
     4    1    6 1   
     5    2    3 2   
     6    2    7 1   
     7    7    8 1   
     8    7   15 1   
     9    8    9 1   
    10    8   11 1   
    11    8   16 1   
    12    9   10 2   
    13    9   19 1   
    14   11   12 1   
    15   11   17 1   
    16   11   18 1   
    17   12   13 1   
    18   12   14 1   
    19   19   20 1   
    20   19   24 1   
    21   20   21 1   
    22   20   23 1   
    23   20   25 1   
    24   21   22 2   
    25   21   29 1   
    26   23   26 1   
    27   23   27 1   
    28   23   28 1   
    29   29   30 1   
    30   29   37 1   
    31   30   31 1   
    32   30   33 1   
    33   30   38 1   
    34   31   32 2   
    35   31   41 1   
    36   33   34 1   
    37   33   39 1   
    38   33   40 1   
    39   34   35 1   
    40   34   36 1   
    41   41   42 1   
    42   41   45 1   
    43   42   43 1   
    44   42   46 1   
    45   42   47 1   
    46   43   44 2   
    47   43   48 1   
    48   48   49 1   
    49   48   56 1   
    50   49   50 1   
    51   49   52 1   
    52   49   57 1   
    53   50   51 2   
    54   50   62 1   
    55   52   53 1   
    56   52   58 1   
    57   52   59 1   
    58   53   54 1   
    59   53   55 2   
    60   54   60 1   
    61   54   61 1   
    62   62   63 1   
    63   62   66 1   
    64   63   64 1   
    65   63   67 1   
    66   63   68 1   
    67   64   65 2   
    68   64   69 1   
    69   69   70 1   
    70   69   76 1   
    71   70   71 1   
    72   70   73 1   
    73   70   77 1   
    74   71   72 2   
    75   71   83 1   
    76   73   74 1   
    77   73   75 1   
    78   73   78 1   
    79   74   80 1   
    80   74   81 1   
    81   74   82 1   
    82   75   79 1   
    83   83   84 1   
    84   83   91 1   
    85   84   85 1   
    86   84   87 1   
    87   84   92 1   
    88   85   86 2   
    89   85  102 1   
    90   87   88 1   
    91   87   89 1   
    92   87   93 1   
    93   88   90 1   
    94   88   94 1   
    95   88   95 1   
    96   89   96 1   
    97   89   97 1   
    98   89   98 1   
    99   90   99 1   
   100   90  100 1   
   101   90  101 1   
   102  102  103 1   
   103  102  110 1   
   104  103  104 1   
   105  103  106 1   
   106  103  111 1   
   107  104  105 2   
   108  104  114 1   
   109  106  107 1   
   110  106  112 1   
   111  106  113 1   
   112  107  108 1   
   113  107  109 1   
   114  114  115 1   
   115  114  125 1   
   116  115  116 1   
   117  115  118 1   
   118  115  126 1   
   119  116  117 2   
   120  116  134 1   
   121  118  119 1   
   122  118  127 1   
   123  118  128 1   
   124  119  120 ar  
   125  119  121 ar  
   126  120  122 ar  
   127  120  129 1   
   128  121  123 ar  
   129  121  130 1   
   130  122  124 ar  
   131  122  131 1   
   132  123  124 ar  
   133  123  132 1   
   134  124  133 1   
   135  134  135 1   
   136  134  140 1   
   137  135  136 1   
   138  135  138 1   
   139  135  141 1   
   140  136  137 2   
   141  136  148 1   
   142  138  139 1   
   143  138  142 1   
   144  138  143 1   
   145  139  140 1   
   146  139  144 1   
   147  139  145 1   
   148  140  146 1   
   149  140  147 1   
   150  148  149 1   
   151  148  157 1   
   152  149  150 1   
   153  149  152 1   
   154  149  158 1   
   155  150  151 2   
   156  150  163 1   
   157  152  153 1   
   158  152  159 1   
   159  152  160 1   
   160  153  154 1   
   161  153  161 1   
   162  153  162 1   
   163  154  155 1   
   164  154  156 1   
   165  163  164 1   
   166  163  168 1   
   167  164  165 1   
   168  164  166 1   
   169  164  167 1   
   170  170  171 1   
   171  170  172 1   
   172  173  174 1   
   173  173  175 1   
   174  176  177 1   
   175  176  178 1   
   176  179  180 1   
   177  179  181 1   
@<TRIPOS>SUBSTRUCTURE
     1 MOL         1 TEMP              0 ****  ****    0 ROOT
