@<TRIPOS>MOLECULE
MOL
  178   175     1     0     0
SMALL
resp


@<TRIPOS>ATOM
      1 C1          0.7040    6.6720   -2.8710 c3        1 MOL     -0.387158
      2 C2          2.0640    6.3390   -2.1200 c         1 MOL      0.742510
      3 O1          2.3260    6.9300   -1.1110 o         1 MOL     -0.578266
      4 H1          0.8810    7.4470   -3.6160 hc        1 MOL      0.091434
      5 H2          0.3300    5.7730   -3.3620 hc        1 MOL      0.091434
      6 H3         -0.0330    7.0250   -2.1490 hc        1 MOL      0.091434
      7 N1          2.9080    5.4600   -2.7300 n         1 MOL     -0.646019
      8 C3          4.2480    5.0960   -2.1550 c3        1 MOL      0.173935
      9 C4          3.9360    4.3190   -0.8010 c         1 MOL      0.575683
     10 O2          3.2360    3.2940   -0.7920 o         1 MOL     -0.563950
     11 C5          5.0190    4.1740   -3.0980 c3        1 MOL     -0.245171
     12 C6          6.3700    3.9200   -2.4950 c         1 MOL      0.710838
     13 O3          7.2430    4.7730   -2.7220 o         1 MOL     -0.733782
     14 O4          6.5220    2.9080   -1.8020 o         1 MOL     -0.733782
     15 H4          2.6640    5.1100   -3.6460 hn        1 MOL      0.309649
     16 H5          4.8070    6.0130   -1.9700 h1        1 MOL      0.051142
     17 H6          5.2020    4.7600   -3.9900 hc        1 MOL      0.044830
     18 H7          4.5090    3.2460   -3.3600 hc        1 MOL      0.044830
     19 N2          4.5160    4.8320    0.3300 n         1 MOL     -0.577915
     20 C7          4.2710    4.2110    1.6480 c3        1 MOL      0.424413
     21 C8          2.7530    4.0210    2.0580 c         1 MOL      0.514915
     22 O5          1.8570    4.7770    1.7830 o         1 MOL     -0.544993
     23 C9          4.9800    5.1420    2.6880 c3        1 MOL     -0.413723
     24 H8          5.0440    5.6980    0.3500 hn        1 MOL      0.310275
     25 H9          4.8000    3.2550    1.6050 h1        1 MOL      0.054444
     26 H10         4.3740    6.0310    2.8430 hc        1 MOL      0.102313
     27 H11         5.1360    4.6770    3.6510 hc        1 MOL      0.102313
     28 H12         6.0050    5.3510    2.3610 hc        1 MOL      0.102313
     29 N3          2.5250    3.0100    2.9220 n         1 MOL     -0.473295
     30 C10         3.5050    2.0860    3.5930 c3        1 MOL     -0.027012
     31 C11         3.9070    0.9020    2.6570 c         1 MOL      0.303673
     32 O6          3.3130    0.6260    1.6190 o         1 MOL     -0.364505
     33 C12         2.7990    1.5810    4.9030 c3        1 MOL     -0.162000
     34 C13         1.5040    0.7630    4.7400 c         1 MOL      0.576616
     35 O7          1.2470    0.1670    3.6580 o         1 MOL     -0.650603
     36 O8          0.7280    0.7540    5.7720 o         1 MOL     -0.650603
     37 H13         1.6030    3.0510    3.3390 hn        1 MOL      0.301366
     38 H14         4.4600    2.5680    3.7870 h1        1 MOL      0.044547
     39 H15         2.7210    2.3700    5.6530 hc        1 MOL      0.071845
     40 H16         3.4830    0.8870    5.3900 hc        1 MOL      0.071845
     41 N4          4.9450    0.1130    2.9790 n         1 MOL     -0.381514
     42 C14         5.5510   -0.9460    2.1610 c3        1 MOL      0.021579
     43 C15         6.5790   -0.4580    1.1480 c         1 MOL      0.646070
     44 O9          7.2160    0.6030    1.3360 o         1 MOL     -0.518389
     45 H17         5.3660    0.3240    3.8670 hn        1 MOL      0.270364
     46 H18         4.7320   -1.4540    1.6430 h1        1 MOL      0.065092
     47 H19         5.9900   -1.7060    2.8070 h1        1 MOL      0.065092
     48 N5          6.9340   -1.2330    0.0770 n         1 MOL     -0.626098
     49 C16         6.7940   -2.6800    0.0130 c3        1 MOL      0.020970
     50 C17         6.0100   -3.1610   -1.2320 c         1 MOL      0.660691
     51 O10         5.9260   -4.3510   -1.5160 o         1 MOL     -0.547027
     52 C18         8.1680   -3.2710    0.1120 c3        1 MOL     -0.347155
     53 C19         8.7620   -3.1080    1.4730 c         1 MOL      0.826194
     54 N6          9.9740   -3.5030    1.6160 n         1 MOL     -0.785081
     55 O11         8.0390   -2.6960    2.4170 o         1 MOL     -0.595915
     56 H20         7.5720   -0.8050   -0.5740 hn        1 MOL      0.356825
     57 H21         6.1050   -2.9130    0.8260 h1        1 MOL      0.097952
     58 H22         8.6450   -2.6200   -0.6060 hc        1 MOL      0.082777
     59 H23         8.2490   -4.3050   -0.2140 hc        1 MOL      0.082777
     60 H24        10.4080   -3.9580    0.8210 hn        1 MOL      0.353756
     61 H25        10.3990   -3.7780    2.4950 hn        1 MOL      0.353756
     62 N7          5.3980   -2.2340   -2.0050 n         1 MOL     -0.344687
     63 C20         4.8290   -2.5470   -3.3510 c3        1 MOL     -0.440189
     64 C21         3.4660   -3.2600   -3.4720 c         1 MOL      0.676783
     65 O12         2.9410   -3.3940   -4.5100 o         1 MOL     -0.577295
     66 H26         5.4310   -1.2650   -1.7550 hn        1 MOL      0.295445
     67 H27         5.5130   -3.1690   -3.9260 h1        1 MOL      0.189255
     68 H28         4.6570   -1.5660   -3.8070 h1        1 MOL      0.189255
     69 N8          2.8390   -3.4670   -2.3490 n         1 MOL     -0.320292
     70 C22         1.6410   -4.3110   -2.1790 c3        1 MOL     -0.062559
     71 C23         0.4550   -3.5520   -1.5020 c         1 MOL      0.570193
     72 O13         0.6340   -2.7360   -0.6400 o         1 MOL     -0.503995
     73 C24         1.9730   -5.6220   -1.3990 c3        1 MOL      0.471555
     74 C25         3.0210   -6.3370   -2.2650 c3        1 MOL     -0.453913
     75 O14         2.4880   -5.3100   -0.1150 oh        1 MOL     -0.605863
     76 H29         3.3240   -3.3340   -1.4770 hn        1 MOL      0.169823
     77 H30         1.2070   -4.5230   -3.1580 h1        1 MOL      0.048821
     78 H31         1.1280   -6.3080   -1.3200 h1        1 MOL     -0.035457
     79 H32         1.7650   -5.4160    0.5000 ho        1 MOL      0.391620
     80 H33         3.8150   -5.6410   -2.5480 hc        1 MOL      0.113466
     81 H34         3.4860   -7.0720   -1.6140 hc        1 MOL      0.113466
     82 H35         2.5430   -6.7610   -3.1470 hc        1 MOL      0.113466
     83 N9         -0.7390   -3.9220   -1.9780 n         1 MOL     -0.480329
     84 C26        -1.9880   -3.2830   -1.6170 c3        1 MOL     -0.204383
     85 C27        -2.4200   -3.6100   -0.1720 c         1 MOL      0.271376
     86 O15        -2.3790   -4.7630    0.2340 o         1 MOL     -0.519309
     87 C28        -3.1400   -3.6100   -2.6590 c3        1 MOL      0.255949
     88 C29        -4.4950   -2.8250   -2.4170 c3        1 MOL      0.069818
     89 C30        -2.6250   -3.6100   -4.0900 c3        1 MOL     -0.266947
     90 C31        -5.6570   -3.3620   -3.2410 c3        1 MOL     -0.031529
     91 H36        -0.7510   -4.7690   -2.5240 hn        1 MOL      0.307368
     92 H37        -1.8980   -2.2150   -1.7850 h1        1 MOL      0.226287
     93 H38        -3.3630   -4.6740   -2.5410 hc        1 MOL     -0.007993
     94 H39        -4.3010   -1.7940   -2.7130 hc        1 MOL     -0.048787
     95 H40        -4.7930   -2.8850   -1.3710 hc        1 MOL     -0.048787
     96 H41        -1.8270   -4.3510   -4.2010 hc        1 MOL      0.052945
     97 H42        -3.4510   -3.8050   -4.7740 hc        1 MOL      0.052945
     98 H43        -2.2990   -2.6180   -4.4060 hc        1 MOL      0.052945
     99 H44        -6.5990   -2.9250   -2.9350 hc        1 MOL     -0.009865
    100 H45        -5.5460   -3.1110   -4.2940 hc        1 MOL     -0.009865
    101 H46        -5.6160   -4.4460   -3.2590 hc        1 MOL     -0.009865
    102 N10        -2.9300   -2.6270    0.5330 n         1 MOL      0.166261
    103 C32        -3.6240   -2.6890    1.8330 c3        1 MOL     -0.152062
    104 C33        -4.9520   -1.9940    1.9820 c         1 MOL      0.370002
    105 O16        -5.7170   -2.3380    2.8950 o         1 MOL     -0.514392
    106 C34        -2.6330   -2.2240    2.8880 c3        1 MOL      0.186291
    107 C35        -1.3630   -3.0000    2.9590 c         1 MOL      0.625082
    108 O17        -1.3420   -3.9120    3.7580 o         1 MOL     -0.701069
    109 O18        -0.3570   -2.6080    2.3550 o         1 MOL     -0.701069
    110 H47        -2.8100   -1.7150    0.1120 hn        1 MOL      0.031077
    111 H48        -3.8160   -3.7340    2.0670 h1        1 MOL      0.089489
    112 H49        -3.1180   -2.2420    3.8570 hc        1 MOL     -0.059231
    113 H50        -2.3120   -1.1980    2.7270 hc        1 MOL     -0.059231
    114 N11        -5.2340   -1.0310    1.0980 n         1 MOL     -0.349730
    115 C36        -6.4100   -0.1480    1.1300 c3        1 MOL      0.475585
    116 C37        -6.1700    1.2010    0.3820 c         1 MOL      0.189309
    117 O19        -6.8130    1.5110   -0.6380 o         1 MOL     -0.493378
    118 C38        -7.6510   -0.9750    0.6200 c3        1 MOL     -0.363974
    119 C39        -8.9720   -0.6150    1.2970 ca        1 MOL      0.082343
    120 C40       -10.0980   -0.2670    0.5760 ca        1 MOL     -0.101016
    121 C41        -9.0570   -0.8360    2.7010 ca        1 MOL     -0.101016
    122 C42       -11.3360   -0.0820    1.2070 ca        1 MOL     -0.169778
    123 C43       -10.2870   -0.5880    3.3340 ca        1 MOL     -0.169778
    124 C44       -11.4610   -0.2670    2.6110 ca        1 MOL     -0.112920
    125 H51        -4.5240   -0.9160    0.3900 hn        1 MOL      0.143575
    126 H52        -6.6090    0.0950    2.1810 h1        1 MOL     -0.010820
    127 H53        -7.5390   -2.0270    0.8820 hc        1 MOL      0.131495
    128 H54        -7.8140   -0.7990   -0.4350 hc        1 MOL      0.131495
    129 H55       -10.0200    0.0150   -0.4620 ha        1 MOL      0.109069
    130 H56        -8.1890   -1.1950    3.2400 ha        1 MOL      0.109069
    131 H57       -12.2140    0.2570    0.6780 ha        1 MOL      0.108591
    132 H58       -10.3470   -0.6090    4.4190 ha        1 MOL      0.108591
    133 H59       -12.3960   -0.1310    3.1370 ha        1 MOL      0.100157
    134 N12        -5.2770    2.0800    0.9050 n         1 MOL     -0.006552
    135 C45        -5.0560    3.4170    0.3470 c3        1 MOL      0.028273
    136 C46        -4.5280    3.4870   -1.1020 c         1 MOL      0.238809
    137 O20        -4.4770    4.5810   -1.6800 o         1 MOL     -0.503778
    138 C47        -4.0090    4.0500    1.2950 c3        1 MOL     -0.102974
    139 C48        -4.4010    3.4810    2.6040 c3        1 MOL     -0.107978
    140 C49        -4.5540    2.0310    2.1670 c3        1 MOL     -0.240509
    141 H60        -5.9210    4.0820    0.3820 h1        1 MOL      0.078219
    142 H61        -3.0410    3.6380    0.9940 hc        1 MOL      0.075176
    143 H62        -4.0930    5.1280    1.2220 hc        1 MOL      0.075176
    144 H63        -3.6250    3.5930    3.3600 hc        1 MOL      0.067194
    145 H64        -5.3910    3.8690    2.8580 hc        1 MOL      0.067194
    146 H65        -3.5350    1.6650    2.0390 h1        1 MOL      0.132857
    147 H66        -5.1580    1.5520    2.9370 h1        1 MOL      0.132857
    148 N13        -4.0630    2.3180   -1.5960 n         1 MOL      0.134825
    149 C50        -3.4150    2.2450   -2.9650 c3        1 MOL     -0.198428
    150 C51        -4.5410    2.0450   -3.9660 c         1 MOL      0.509293
    151 O21        -4.6000    2.7800   -4.9310 o         1 MOL     -0.540411
    152 C52        -2.4280    1.1220   -3.0890 c3        1 MOL      0.191039
    153 C53        -1.3880    0.8130   -2.0070 c3        1 MOL     -0.419404
    154 C54        -1.9520    0.1910   -0.6990 c         1 MOL      0.408731
    155 O22        -1.2470   -0.2850    0.2330 o         1 MOL     -0.490851
    156 O23        -3.2160   -0.1450   -0.6670 o         1 MOL     -0.490851
    157 H67        -4.1140    1.5080   -0.9940 hn        1 MOL      0.033525
    158 H68        -2.9080    3.1890   -3.1830 h1        1 MOL      0.113859
    159 H69        -1.9140    1.1770   -4.0430 hc        1 MOL     -0.021637
    160 H70        -3.0170    0.2070   -3.1560 hc        1 MOL     -0.021637
    161 H71        -0.9120    1.7540   -1.7170 hc        1 MOL      0.133010
    162 H72        -0.5710    0.1320   -2.2730 hc        1 MOL      0.133010
    163 N14        -5.5330    1.1990   -3.6430 n         1 MOL     -0.282950
    164 C55        -6.7940    1.1450   -4.3310 c3        1 MOL     -0.179771
    165 H73        -6.7340    1.7350   -5.2460 h1        1 MOL      0.081694
    166 H74        -7.0280    0.1110   -4.5820 h1        1 MOL      0.081694
    167 H75        -7.5760    1.5500   -3.6890 h1        1 MOL      0.081694
    168 H76        -5.4140    0.6240   -2.8250 hn        1 MOL      0.289735
    169 Ca1         0.9350   -0.6820    1.3450 Ca        1 MOL      1.650795
    170 O24         2.5790   -2.7390    1.4820 oh        1 MOL     -0.882740
    171 H77         3.1440   -3.0800    2.1760 ho        1 MOL      0.418311
    172 H78         2.2070   -3.5080    1.0700 ho        1 MOL      0.418311
    173 O25         0.3130    2.0850    1.3210 oh        1 MOL     -0.882740
    174 H79         0.9110    2.7730    1.0210 ho        1 MOL      0.418311
    175 H80        -0.2250    2.5110    1.9970 ho        1 MOL      0.418311
    176 O26         2.0970    0.4920   -0.8230 oh        1 MOL     -0.882740
    177 H81         2.6420    1.2650   -0.6720 ho        1 MOL      0.418311
    178 H82         1.6860    0.6510   -1.6760 ho        1 MOL      0.418311
@<TRIPOS>BOND
     1    1    2 1   
     2    1    4 1   
     3    1    5 1   
     4    1    6 1   
     5    2    3 2   
     6    2    7 1   
     7    7    8 1   
     8    7   15 1   
     9    8    9 1   
    10    8   11 1   
    11    8   16 1   
    12    9   10 2   
    13    9   19 1   
    14   11   12 1   
    15   11   17 1   
    16   11   18 1   
    17   12   13 1   
    18   12   14 1   
    19   19   20 1   
    20   19   24 1   
    21   20   21 1   
    22   20   23 1   
    23   20   25 1   
    24   21   22 2   
    25   21   29 1   
    26   23   26 1   
    27   23   27 1   
    28   23   28 1   
    29   29   30 1   
    30   29   37 1   
    31   30   31 1   
    32   30   33 1   
    33   30   38 1   
    34   31   32 2   
    35   31   41 1   
    36   33   34 1   
    37   33   39 1   
    38   33   40 1   
    39   34   35 1   
    40   34   36 1   
    41   41   42 1   
    42   41   45 1   
    43   42   43 1   
    44   42   46 1   
    45   42   47 1   
    46   43   44 2   
    47   43   48 1   
    48   48   49 1   
    49   48   56 1   
    50   49   50 1   
    51   49   52 1   
    52   49   57 1   
    53   50   51 2   
    54   50   62 1   
    55   52   53 1   
    56   52   58 1   
    57   52   59 1   
    58   53   54 1   
    59   53   55 2   
    60   54   60 1   
    61   54   61 1   
    62   62   63 1   
    63   62   66 1   
    64   63   64 1   
    65   63   67 1   
    66   63   68 1   
    67   64   65 2   
    68   64   69 1   
    69   69   70 1   
    70   69   76 1   
    71   70   71 1   
    72   70   73 1   
    73   70   77 1   
    74   71   72 2   
    75   71   83 1   
    76   73   74 1   
    77   73   75 1   
    78   73   78 1   
    79   74   80 1   
    80   74   81 1   
    81   74   82 1   
    82   75   79 1   
    83   83   84 1   
    84   83   91 1   
    85   84   85 1   
    86   84   87 1   
    87   84   92 1   
    88   85   86 2   
    89   85  102 1   
    90   87   88 1   
    91   87   89 1   
    92   87   93 1   
    93   88   90 1   
    94   88   94 1   
    95   88   95 1   
    96   89   96 1   
    97   89   97 1   
    98   89   98 1   
    99   90   99 1   
   100   90  100 1   
   101   90  101 1   
   102  102  103 1   
   103  102  110 1   
   104  103  104 1   
   105  103  106 1   
   106  103  111 1   
   107  104  105 2   
   108  104  114 1   
   109  106  107 1   
   110  106  112 1   
   111  106  113 1   
   112  107  108 1   
   113  107  109 1   
   114  114  115 1   
   115  114  125 1   
   116  115  116 1   
   117  115  118 1   
   118  115  126 1   
   119  116  117 2   
   120  116  134 1   
   121  118  119 1   
   122  118  127 1   
   123  118  128 1   
   124  119  120 ar  
   125  119  121 ar  
   126  120  122 ar  
   127  120  129 1   
   128  121  123 ar  
   129  121  130 1   
   130  122  124 ar  
   131  122  131 1   
   132  123  124 ar  
   133  123  132 1   
   134  124  133 1   
   135  134  135 1   
   136  134  140 1   
   137  135  136 1   
   138  135  138 1   
   139  135  141 1   
   140  136  137 2   
   141  136  148 1   
   142  138  139 1   
   143  138  142 1   
   144  138  143 1   
   145  139  140 1   
   146  139  144 1   
   147  139  145 1   
   148  140  146 1   
   149  140  147 1   
   150  148  149 1   
   151  148  157 1   
   152  149  150 1   
   153  149  152 1   
   154  149  158 1   
   155  150  151 2   
   156  150  163 1   
   157  152  153 1   
   158  152  159 1   
   159  152  160 1   
   160  153  154 1   
   161  153  161 1   
   162  153  162 1   
   163  154  155 1   
   164  154  156 1   
   165  163  164 1   
   166  163  168 1   
   167  164  165 1   
   168  164  166 1   
   169  164  167 1   
   170  170  171 1   
   171  170  172 1   
   172  173  174 1   
   173  173  175 1   
   174  176  177 1   
   175  176  178 1   
@<TRIPOS>SUBSTRUCTURE
     1 MOL         1 TEMP              0 ****  ****    0 ROOT
