@<TRIPOS>MOLECULE
MOL
  192   187     1     0     0
SMALL
resp


@<TRIPOS>ATOM
      1 C1         -2.9350   -4.4310    2.9420 c3        1 MOL     -0.381030
      2 C2         -1.8370   -4.2630    1.8600 c         1 MOL      0.763208
      3 O1         -1.4530   -3.1710    1.6300 o         1 MOL     -0.507576
      4 H1         -3.6380   -3.6000    2.8780 hc        1 MOL      0.083364
      5 H2         -3.4660   -5.3690    2.7800 hc        1 MOL      0.083364
      6 H3         -2.4740   -4.4400    3.9300 hc        1 MOL      0.083364
      7 N1         -1.4810   -5.2600    1.0400 n         1 MOL     -0.524851
      8 C3         -0.5590   -5.2120   -0.1150 c3        1 MOL      0.015368
      9 C4          0.8930   -4.6520    0.1590 c         1 MOL      0.580094
     10 O2          1.4490   -4.0120   -0.7250 o         1 MOL     -0.499948
     11 C5         -1.1450   -4.4780   -1.3480 c3        1 MOL     -0.851613
     12 C6         -2.6740   -4.5970   -1.5390 c         1 MOL      0.958333
     13 O3         -3.3340   -3.5690   -1.3380 o         1 MOL     -0.724170
     14 O4         -3.2460   -5.6850   -1.8070 o         1 MOL     -0.724170
     15 H4         -1.9840   -6.1250    1.1740 hn        1 MOL      0.241911
     16 H5         -0.5640   -6.2670   -0.3740 h1        1 MOL      0.129764
     17 H6         -0.6170   -4.9150   -2.1950 hc        1 MOL      0.250128
     18 H7         -0.9030   -3.4200   -1.2990 hc        1 MOL      0.250128
     19 N2          1.4330   -4.8750    1.3670 n         1 MOL     -0.384746
     20 C7          2.6920   -4.3090    1.8930 c3        1 MOL     -0.115769
     21 C8          3.8140   -5.3500    2.0870 c         1 MOL      0.343460
     22 O5          3.5630   -6.4780    2.5070 o         1 MOL     -0.537464
     23 C9          2.5190   -3.4620    3.1640 c3        1 MOL      0.286516
     24 C10         1.7230   -4.2670    4.2030 c3        1 MOL      0.296846
     25 C11         2.1660   -2.0450    2.8690 c3        1 MOL     -0.147824
     26 C12         1.8130   -3.5110    5.4770 c3        1 MOL     -0.316395
     27 H8          0.9280   -5.4830    1.9980 hn        1 MOL      0.194521
     28 H9          3.0370   -3.6440    1.0940 h1        1 MOL      0.121333
     29 H10         3.5230   -3.3790    3.5610 hc        1 MOL     -0.007092
     30 H11         2.0590   -5.2850    4.4030 hc        1 MOL     -0.067300
     31 H12         0.6940   -4.1380    3.8510 hc        1 MOL     -0.067300
     32 H13         1.1320   -1.9990    2.5510 hc        1 MOL      0.017635
     33 H14         2.2190   -1.3250    3.6880 hc        1 MOL      0.017635
     34 H15         2.8270   -1.5900    2.1230 hc        1 MOL      0.017635
     35 H16         2.8320   -3.2560    5.7490 hc        1 MOL      0.059367
     36 H17         1.2950   -2.5720    5.2870 hc        1 MOL      0.059367
     37 H18         1.3320   -4.2050    6.1580 hc        1 MOL      0.059367
     38 N3          5.1150   -5.0900    1.9670 n         1 MOL     -0.211892
     39 C13         5.8410   -3.7420    1.8040 c3        1 MOL      0.073740
     40 C14         5.6310   -3.2570    0.3830 c         1 MOL      0.394637
     41 O6          5.3350   -2.0870    0.2180 o         1 MOL     -0.453486
     42 C15         7.3220   -3.8170    2.1710 c3        1 MOL     -0.160927
     43 C16         7.5470   -4.4230    3.5260 c         1 MOL      0.685610
     44 O7          7.6460   -3.6970    4.5150 o         1 MOL     -0.694384
     45 O8          7.4980   -5.6540    3.7020 o         1 MOL     -0.694384
     46 H19         5.6630   -5.9350    2.0080 hn        1 MOL      0.208459
     47 H20         5.4170   -2.9960    2.4820 h1        1 MOL      0.057995
     48 H21         7.7610   -2.8100    2.1490 hc        1 MOL      0.018048
     49 H22         7.7830   -4.3680    1.3660 hc        1 MOL      0.018048
     50 N4          5.7250   -4.1380   -0.6810 n         1 MOL     -0.281202
     51 C17         5.3330   -3.7350   -2.0750 c3        1 MOL     -0.310222
     52 C18         6.4570   -2.8810   -2.6300 c         1 MOL      0.594328
     53 O9          7.5730   -3.4330   -2.8670 o         1 MOL     -0.580263
     54 H23         5.8890   -5.1370   -0.5670 hn        1 MOL      0.272761
     55 H24         4.5260   -2.9970   -2.0680 h1        1 MOL      0.134645
     56 H25         5.1670   -4.6040   -2.7160 h1        1 MOL      0.134645
     57 N5          6.2120   -1.5390   -2.8810 n         1 MOL     -0.501661
     58 C19         7.2180   -0.5390   -3.1980 c3        1 MOL      0.247350
     59 C20         7.6700    0.4060   -2.0380 c         1 MOL      0.382749
     60 O10         8.5490    1.1940   -2.1940 o         1 MOL     -0.543833
     61 C21         6.6940    0.2560   -4.4700 c3        1 MOL     -0.395894
     62 C22         5.3680    1.0090   -4.2430 c         1 MOL      0.752849
     63 O11         4.5440    1.2920   -5.1070 o         1 MOL     -0.702211
     64 O12         5.0550    1.3260   -3.0630 o         1 MOL     -0.702211
     65 H26         5.2360   -1.3450   -2.6970 hn        1 MOL      0.308012
     66 H27         8.1490   -1.0220   -3.4670 h1        1 MOL      0.047394
     67 H28         6.7300   -0.3630   -5.3630 hc        1 MOL      0.079293
     68 H29         7.4380    1.0090   -4.7090 hc        1 MOL      0.079293
     69 N6          6.8930    0.4720   -0.9330 n         1 MOL     -0.145742
     70 C23         7.2260    1.1170    0.3290 c3        1 MOL     -0.119788
     71 C24         6.9580    2.6310    0.4510 c         1 MOL      0.385266
     72 O13         7.3970    3.2860    1.4080 o         1 MOL     -0.549250
     73 H30         6.1530   -0.1950   -0.7920 hn        1 MOL      0.157149
     74 H31         8.2490    0.9370    0.6670 h1        1 MOL      0.090216
     75 H32         6.5580    0.6530    1.0560 h1        1 MOL      0.090216
     76 N7          6.2530    3.1770   -0.5450 n         1 MOL      0.065346
     77 C25         5.7250    4.5130   -0.4980 c3        1 MOL     -0.000906
     78 C26         4.7170    4.8880    0.6620 c         1 MOL      0.302341
     79 O14         4.5340    6.0390    1.1040 o         1 MOL     -0.492837
     80 C27         6.7790    5.6020   -0.8200 c3        1 MOL      0.030220
     81 C28         7.7650    5.2630   -1.9740 c3        1 MOL     -0.098651
     82 C29         8.6180    6.4620   -2.3330 c         1 MOL      0.652761
     83 N8          9.6090    6.2160   -3.1850 n         1 MOL     -0.848025
     84 O15         8.4280    7.5850   -1.9000 o         1 MOL     -0.565089
     85 H33         5.9400    2.5130   -1.2380 hn        1 MOL      0.049058
     86 H34         5.1330    4.4780   -1.4120 h1        1 MOL      0.058150
     87 H35         7.4300    5.8030    0.0190 hc        1 MOL      0.008158
     88 H36         6.3440    6.5560   -1.0980 hc        1 MOL      0.008158
     89 H37         7.2140    4.9810   -2.8700 hc        1 MOL      0.030807
     90 H38         8.3740    4.3800   -1.7880 hc        1 MOL      0.030807
     91 H39         9.5720    5.2620   -3.5090 hn        1 MOL      0.372544
     92 H40        10.2840    6.9410   -3.3630 hn        1 MOL      0.372544
     93 N9          4.1710    3.8440    1.2480 n         1 MOL     -0.032703
     94 C30         3.2890    3.8940    2.4180 c3        1 MOL     -0.267324
     95 C31         1.7930    3.7270    2.0840 c         1 MOL      0.597621
     96 O16         0.9670    4.1500    2.8780 o         1 MOL     -0.560214
     97 C32         3.7790    2.8590    3.5000 c3        1 MOL      0.334929
     98 C33         3.9470    1.3850    3.0360 c3        1 MOL     -0.277987
     99 C34         5.0710    3.3560    4.1540 c3        1 MOL     -0.277987
    100 H41         4.3380    2.9040    0.9380 hn        1 MOL      0.112596
    101 H42         3.4060    4.8850    2.8570 h1        1 MOL      0.136804
    102 H43         3.0460    2.9260    4.3120 hc        1 MOL     -0.044080
    103 H44         4.5050    0.7890    3.7590 hc        1 MOL      0.062749
    104 H45         2.9790    0.9020    2.9550 hc        1 MOL      0.062749
    105 H46         4.3710    1.3810    2.0310 hc        1 MOL      0.062749
    106 H47         5.1990    2.9770    5.1610 hc        1 MOL      0.062749
    107 H48         5.9120    3.0660    3.5150 hc        1 MOL      0.062749
    108 H49         4.9930    4.4440    4.1690 hc        1 MOL      0.062749
    109 N10         1.4890    3.1870    0.9420 n         1 MOL     -0.403668
    110 C35         0.1700    2.6320    0.6250 c3        1 MOL      0.158673
    111 C36        -0.7510    3.5630   -0.2120 c         1 MOL      0.582272
    112 O17        -0.3030    4.5030   -0.8880 o         1 MOL     -0.562182
    113 C37         0.3290    1.2290    0.1020 c3        1 MOL     -0.081628
    114 C38        -0.7680    0.1810    0.4210 c         1 MOL      0.522709
    115 N11        -0.4850   -1.0250   -0.0270 n         1 MOL     -0.515058
    116 O18        -1.7860    0.4830    1.0490 o         1 MOL     -0.512280
    117 H50         2.2280    3.0050    0.2820 hn        1 MOL      0.199664
    118 H51        -0.3660    2.5120    1.5660 h1        1 MOL      0.004102
    119 H52         1.2450    0.8150    0.5410 hc        1 MOL      0.032572
    120 H53         0.6600    1.2400   -0.9330 hc        1 MOL      0.032572
    121 H54         0.4050   -1.1310   -0.4980 hn        1 MOL      0.279750
    122 H55        -0.8760   -1.8140    0.4550 hn        1 MOL      0.279750
    123 N12        -2.0580    3.3190   -0.0600 n         1 MOL     -0.435036
    124 C39        -3.1250    4.0710   -0.6170 c3        1 MOL      0.070134
    125 C40        -4.4760    3.7570    0.0750 c         1 MOL      0.574314
    126 O19        -4.5750    2.8840    0.9100 o         1 MOL     -0.549643
    127 C41        -3.2190    3.6400   -2.0910 c3        1 MOL     -0.177383
    128 C42        -3.0700    2.1760   -2.4420 ca        1 MOL      0.144329
    129 C43        -4.0120    1.2380   -2.0690 ca        1 MOL     -0.244700
    130 C44        -1.9020    1.7310   -3.1660 ca        1 MOL     -0.244700
    131 C45        -3.8360   -0.1060   -2.3370 ca        1 MOL     -0.187161
    132 C46        -1.7480    0.3920   -3.4910 ca        1 MOL     -0.187161
    133 C47        -2.7090   -0.5600   -3.0090 ca        1 MOL      0.257402
    134 O20        -2.6030   -1.9010   -3.2450 oh        1 MOL     -0.522578
    135 H56        -2.2430    2.4080    0.3450 hn        1 MOL      0.252995
    136 H57        -2.9940    5.1380   -0.4290 h1        1 MOL      0.097933
    137 H58        -2.4780    4.1810   -2.6680 hc        1 MOL      0.045741
    138 H59        -4.0800    4.0220   -2.6410 hc        1 MOL      0.045741
    139 H60        -4.8260    1.5740   -1.4520 ha        1 MOL      0.164391
    140 H61        -1.1530    2.4050   -3.5640 ha        1 MOL      0.164391
    141 H62        -4.6210   -0.7350   -1.9370 ha        1 MOL      0.137532
    142 H63        -0.8780    0.1060   -4.0540 ha        1 MOL      0.137532
    143 H64        -3.2320   -2.3930   -2.7110 ho        1 MOL      0.419057
    144 N13        -5.5300    4.4690   -0.2500 n         1 MOL     -0.487964
    145 C48        -6.8610    4.2970    0.2300 c3        1 MOL      0.360673
    146 C49        -7.7500    3.9610   -0.9580 c         1 MOL      0.400383
    147 O21        -7.8990    4.6470   -1.9750 o         1 MOL     -0.546068
    148 C50        -7.3740    5.6330    0.9550 c3        1 MOL     -0.208493
    149 C51        -6.6910    5.8350    2.2910 c3        1 MOL      0.034799
    150 C52        -7.2190    6.9590    3.1300 c         1 MOL      0.669380
    151 O22        -8.0870    6.6800    3.9720 o         1 MOL     -0.684643
    152 O23        -6.7070    8.1230    3.0370 o         1 MOL     -0.684643
    153 H65        -5.4320    5.0680   -1.0520 hn        1 MOL      0.257100
    154 H66        -6.9490    3.4760    0.9450 h1        1 MOL     -0.014982
    155 H67        -8.4360    5.5580    1.1860 hc        1 MOL      0.049968
    156 H68        -7.1640    6.5250    0.3530 hc        1 MOL      0.049968
    157 H69        -5.6150    6.0150    2.1820 hc        1 MOL     -0.028936
    158 H70        -6.8600    4.8720    2.7700 hc        1 MOL     -0.028936
    159 N14        -8.4340    2.7790   -0.9810 n         1 MOL     -0.398252
    160 C53        -8.2420    1.5290   -0.1350 c3        1 MOL     -0.341113
    161 C54        -9.0980    1.5240    1.1950 c         1 MOL      0.687782
    162 O24       -10.1340    2.1410    1.2880 o         1 MOL     -0.538857
    163 C55        -8.5290    0.3750   -1.0520 c3        1 MOL      0.465001
    164 C56        -7.9250   -0.9360   -0.4890 c3        1 MOL     -0.208162
    165 C57        -8.1160   -2.0600   -1.5320 c         1 MOL      0.535597
    166 O25        -9.1700   -2.3030   -2.0940 o         1 MOL     -0.650979
    167 O26        -7.0880   -2.7610   -1.7500 o         1 MOL     -0.650979
    168 H71        -9.0860    2.7150   -1.7460 hn        1 MOL      0.283510
    169 H72        -7.1940    1.4320    0.1450 h1        1 MOL      0.112550
    170 H73        -8.2280    0.4460   -2.1010 hc        1 MOL     -0.061845
    171 H74        -9.6090    0.2680   -1.0420 hc        1 MOL     -0.061845
    172 H75        -8.3240   -1.1000    0.5120 hc        1 MOL     -0.004718
    173 H76        -6.8430   -0.8270   -0.4060 hc        1 MOL     -0.004718
    174 N15        -8.5450    0.8830    2.2550 n         1 MOL     -0.304854
    175 C58        -9.2680    0.5730    3.5460 c3        1 MOL     -0.160363
    176 H77       -10.2870    0.9580    3.4920 h1        1 MOL      0.079113
    177 H78        -9.2960   -0.5060    3.6970 h1        1 MOL      0.079113
    178 H79        -8.7450    1.0440    4.3780 h1        1 MOL      0.079113
    179 H80        -7.5380    0.7620    2.2870 hn        1 MOL      0.259987
    180 Ca1        -5.6590   -4.9500   -1.1870 Ca        1 MOL      1.611848
    181 O27        -5.3660   -4.4790   -3.8620 oh        1 MOL     -0.918802
    182 H81        -4.8770   -5.0820   -4.4140 ho        1 MOL      0.431993
    183 H82        -5.9810   -4.0560   -4.4590 ho        1 MOL      0.431993
    184 O28        -7.9210   -5.0730   -2.8280 oh        1 MOL     -0.918802
    185 H83        -7.8640   -4.1170   -2.9310 ho        1 MOL      0.431993
    186 H84        -8.8330   -5.2790   -3.0080 ho        1 MOL      0.431993
    187 O29        -5.8650   -3.2200    1.0590 oh        1 MOL     -0.918802
    188 H85        -5.4850   -2.3460    1.1110 ho        1 MOL      0.431993
    189 H86        -6.7660   -3.1090    1.3620 ho        1 MOL      0.431993
    190 O30        -6.0370   -7.4650   -2.0050 oh        1 MOL     -0.918802
    191 H87        -6.5220   -7.9200   -1.3170 ho        1 MOL      0.431993
    192 H88        -6.1630   -8.0010   -2.7880 ho        1 MOL      0.431993
@<TRIPOS>BOND
     1    1    2 1   
     2    1    4 1   
     3    1    5 1   
     4    1    6 1   
     5    2    3 2   
     6    2    7 1   
     7    7    8 1   
     8    7   15 1   
     9    8    9 1   
    10    8   11 1   
    11    8   16 1   
    12    9   10 2   
    13    9   19 1   
    14   11   12 1   
    15   11   17 1   
    16   11   18 1   
    17   12   13 1   
    18   12   14 1   
    19   19   20 1   
    20   19   27 1   
    21   20   21 1   
    22   20   23 1   
    23   20   28 1   
    24   21   22 2   
    25   21   38 1   
    26   23   24 1   
    27   23   25 1   
    28   23   29 1   
    29   24   26 1   
    30   24   30 1   
    31   24   31 1   
    32   25   32 1   
    33   25   33 1   
    34   25   34 1   
    35   26   35 1   
    36   26   36 1   
    37   26   37 1   
    38   38   39 1   
    39   38   46 1   
    40   39   40 1   
    41   39   42 1   
    42   39   47 1   
    43   40   41 2   
    44   40   50 1   
    45   42   43 1   
    46   42   48 1   
    47   42   49 1   
    48   43   44 1   
    49   43   45 1   
    50   50   51 1   
    51   50   54 1   
    52   51   52 1   
    53   51   55 1   
    54   51   56 1   
    55   52   53 2   
    56   52   57 1   
    57   57   58 1   
    58   57   65 1   
    59   58   59 1   
    60   58   61 1   
    61   58   66 1   
    62   59   60 2   
    63   59   69 1   
    64   61   62 1   
    65   61   67 1   
    66   61   68 1   
    67   62   63 1   
    68   62   64 1   
    69   69   70 1   
    70   69   73 1   
    71   70   71 1   
    72   70   74 1   
    73   70   75 1   
    74   71   72 2   
    75   71   76 1   
    76   76   77 1   
    77   76   85 1   
    78   77   78 1   
    79   77   80 1   
    80   77   86 1   
    81   78   79 2   
    82   78   93 1   
    83   80   81 1   
    84   80   87 1   
    85   80   88 1   
    86   81   82 1   
    87   81   89 1   
    88   81   90 1   
    89   82   83 1   
    90   82   84 2   
    91   83   91 1   
    92   83   92 1   
    93   93   94 1   
    94   93  100 1   
    95   94   95 1   
    96   94   97 1   
    97   94  101 1   
    98   95   96 2   
    99   95  109 1   
   100   97   98 1   
   101   97   99 1   
   102   97  102 1   
   103   98  103 1   
   104   98  104 1   
   105   98  105 1   
   106   99  106 1   
   107   99  107 1   
   108   99  108 1   
   109  109  110 1   
   110  109  117 1   
   111  110  111 1   
   112  110  113 1   
   113  110  118 1   
   114  111  112 2   
   115  111  123 1   
   116  113  114 1   
   117  113  119 1   
   118  113  120 1   
   119  114  115 1   
   120  114  116 2   
   121  115  121 1   
   122  115  122 1   
   123  123  124 1   
   124  123  135 1   
   125  124  125 1   
   126  124  127 1   
   127  124  136 1   
   128  125  126 2   
   129  125  144 1   
   130  127  128 1   
   131  127  137 1   
   132  127  138 1   
   133  128  129 ar  
   134  128  130 ar  
   135  129  131 ar  
   136  129  139 1   
   137  130  132 ar  
   138  130  140 1   
   139  131  133 ar  
   140  131  141 1   
   141  132  133 ar  
   142  132  142 1   
   143  133  134 1   
   144  134  143 1   
   145  144  145 1   
   146  144  153 1   
   147  145  146 1   
   148  145  148 1   
   149  145  154 1   
   150  146  147 2   
   151  146  159 1   
   152  148  149 1   
   153  148  155 1   
   154  148  156 1   
   155  149  150 1   
   156  149  157 1   
   157  149  158 1   
   158  150  151 1   
   159  150  152 1   
   160  159  160 1   
   161  159  168 1   
   162  160  161 1   
   163  160  163 1   
   164  160  169 1   
   165  161  162 2   
   166  161  174 1   
   167  163  164 1   
   168  163  170 1   
   169  163  171 1   
   170  164  165 1   
   171  164  172 1   
   172  164  173 1   
   173  165  166 1   
   174  165  167 1   
   175  174  175 1   
   176  174  179 1   
   177  175  176 1   
   178  175  177 1   
   179  175  178 1   
   180  181  182 1   
   181  181  183 1   
   182  184  185 1   
   183  184  186 1   
   184  187  188 1   
   185  187  189 1   
   186  190  191 1   
   187  190  192 1   
@<TRIPOS>SUBSTRUCTURE
     1 MOL         1 TEMP              0 ****  ****    0 ROOT
