@<TRIPOS>MOLECULE
MOL
  192   187     1     0     0
SMALL
resp


@<TRIPOS>ATOM
      1 C1        -10.2640   -0.3300   -1.9690 c3        1 MOL     -0.710071
      2 C2         -8.9640   -0.4530   -1.1530 c         1 MOL      0.832596
      3 O1         -7.8290   -0.2750   -1.6200 o         1 MOL     -0.683168
      4 H1        -11.1130   -0.2530   -1.2900 hc        1 MOL      0.187972
      5 H2        -10.2190    0.5630   -2.5940 hc        1 MOL      0.187972
      6 H3        -10.3830   -1.2100   -2.6000 hc        1 MOL      0.187972
      7 N1         -9.0300   -0.7440    0.1840 n         1 MOL     -0.648172
      8 C3         -7.9540   -0.6780    1.1610 c3        1 MOL      0.354527
      9 C4         -7.1630   -2.0260    1.3140 c         1 MOL      0.252945
     10 O2         -7.2190   -2.6670    2.3380 o         1 MOL     -0.473682
     11 C5         -8.5130   -0.1730    2.5720 c3        1 MOL     -0.201934
     12 C6         -9.4050    1.0880    2.3710 c         1 MOL      0.726316
     13 O3        -10.6430    0.9670    2.2730 o         1 MOL     -0.661974
     14 O4         -8.8030    2.2090    2.2890 o         1 MOL     -0.661974
     15 H4         -9.9570   -0.7440    0.5640 hn        1 MOL      0.275870
     16 H5         -7.3120    0.0990    0.7620 h1        1 MOL      0.013548
     17 H6         -7.6410    0.0620    3.1740 hc        1 MOL      0.040850
     18 H7         -9.1650   -0.8650    3.1010 hc        1 MOL      0.040850
     19 N2         -6.4550   -2.4200    0.2480 n         1 MOL      0.016258
     20 C7         -5.9450   -3.8010    0.1970 c3        1 MOL      0.127372
     21 C8         -4.5050   -3.9590    0.6340 c         1 MOL      0.571006
     22 O5         -4.3020   -4.8500    1.4200 o         1 MOL     -0.560325
     23 C9         -6.0200   -4.3320   -1.2780 c3        1 MOL     -0.403408
     24 C10        -7.4140   -4.7560   -1.7060 c3        1 MOL      0.111713
     25 C11        -7.6030   -5.2250   -3.1640 c3        1 MOL     -0.189309
     26 C12        -9.0810   -5.5810   -3.4180 c3        1 MOL      0.120565
     27 N3         -9.2990   -5.7170   -4.8630 n4        1 MOL     -0.299306
     28 H8         -6.5510   -1.8640   -0.5880 hn        1 MOL      0.191115
     29 H9         -6.4310   -4.4590    0.9270 h1        1 MOL      0.044480
     30 H10        -5.5320   -5.3100   -1.3090 hc        1 MOL      0.120775
     31 H11        -5.5360   -3.6230   -1.9510 hc        1 MOL      0.120775
     32 H12        -7.9740   -3.8770   -1.3920 hc        1 MOL     -0.005605
     33 H13        -7.7450   -5.5610   -1.0520 hc        1 MOL     -0.005605
     34 H14        -6.9670   -6.0990   -3.2930 hc        1 MOL      0.077575
     35 H15        -7.3190   -4.3590   -3.7610 hc        1 MOL      0.077575
     36 H16        -9.7490   -4.8660   -2.9550 hx        1 MOL      0.065938
     37 H17        -9.2580   -6.5040   -2.8820 hx        1 MOL      0.065938
     38 H18        -8.7840   -6.4750   -5.3010 hn        1 MOL      0.267965
     39 H19       -10.2740   -5.8390   -5.0740 hn        1 MOL      0.267965
     40 H20        -8.9470   -4.8640   -5.2910 hn        1 MOL      0.267965
     41 N4         -3.5530   -3.1710    0.2520 n         1 MOL     -0.566475
     42 C13        -3.5820   -1.9180   -0.5020 c3        1 MOL      0.243770
     43 C14        -3.8160   -0.6110    0.3520 c         1 MOL      0.274624
     44 O6         -3.8400   -0.7040    1.5640 o         1 MOL     -0.415058
     45 C15        -2.3150   -1.7270   -1.3960 c3        1 MOL     -0.145986
     46 C16        -1.0080   -1.5310   -0.7030 c         1 MOL      0.614948
     47 O7         -0.9810   -0.9130    0.3530 o         1 MOL     -0.609798
     48 O8         -0.0090   -2.1460   -1.1600 o         1 MOL     -0.609798
     49 H21        -2.6710   -3.3850    0.6720 hn        1 MOL      0.354166
     50 H22        -4.4570   -1.9340   -1.1600 h1        1 MOL     -0.035535
     51 H23        -2.4820   -0.8300   -1.9960 hc        1 MOL      0.016246
     52 H24        -2.1750   -2.5980   -2.0350 hc        1 MOL      0.016246
     53 N5         -4.1890    0.5080   -0.3330 n         1 MOL     -0.434638
     54 C17        -4.4480    1.8320    0.2300 c3        1 MOL     -0.014717
     55 C18        -3.1790    2.5910    0.7180 c         1 MOL      0.513462
     56 O9         -2.1070    1.9630    0.6860 o         1 MOL     -0.511276
     57 H25        -4.2900    0.4070   -1.3420 hn        1 MOL      0.313860
     58 H26        -5.1460    1.6360    1.0460 h1        1 MOL      0.090984
     59 H27        -4.9860    2.4470   -0.5010 h1        1 MOL      0.090984
     60 N6         -3.3490    3.8390    1.1430 n         1 MOL     -0.476179
     61 C19        -2.3010    4.7340    1.6620 c3        1 MOL      0.232701
     62 C20        -2.6150    6.2120    1.3570 c         1 MOL      0.396004
     63 O10        -3.7320    6.7050    1.3770 o         1 MOL     -0.502318
     64 C21        -2.0470    4.5670    3.1150 c3        1 MOL     -0.127005
     65 C22        -1.3560    3.2320    3.3870 c         1 MOL      0.608630
     66 O11        -0.2200    3.0930    2.8820 o         1 MOL     -0.644145
     67 O12        -1.9580    2.3680    4.0800 o         1 MOL     -0.644145
     68 H28        -4.2720    4.2260    0.9840 hn        1 MOL      0.281340
     69 H29        -1.3780    4.6670    1.0830 h1        1 MOL      0.085113
     70 H30        -2.9620    4.6520    3.7090 hc        1 MOL      0.045835
     71 H31        -1.3720    5.3300    3.5040 hc        1 MOL      0.045835
     72 N7         -1.6080    7.0940    1.2150 n         1 MOL     -0.416381
     73 C23        -0.1380    6.9130    1.3930 c3        1 MOL      0.050661
     74 C24         0.6800    6.6180    0.0830 c         1 MOL      0.510262
     75 O13         0.4480    7.0240   -1.0630 o         1 MOL     -0.512023
     76 H32        -1.9170    8.0100    0.9480 hn        1 MOL      0.293671
     77 H33        -0.0440    6.1020    2.1160 h1        1 MOL      0.041835
     78 H34         0.2170    7.7350    2.0160 h1        1 MOL      0.041835
     79 N8          1.6900    5.8380    0.3940 n         1 MOL     -0.501756
     80 C25         2.4600    5.0800   -0.5710 c3        1 MOL     -0.144062
     81 C26         1.6750    3.8000   -0.8560 c         1 MOL      0.704652
     82 O14         0.9380    3.2740   -0.0180 o         1 MOL     -0.663536
     83 C27         3.8240    4.7760   -0.0250 c3        1 MOL      0.419983
     84 C28         4.6830    4.1710   -1.1550 c3        1 MOL     -0.339258
     85 O15         3.9360    3.7600    0.9490 oh        1 MOL     -0.635062
     86 H35         1.8030    5.5690    1.3610 hn        1 MOL      0.269531
     87 H36         2.5830    5.6840   -1.4690 h1        1 MOL      0.147129
     88 H37         4.3760    5.6100    0.4110 h1        1 MOL      0.015634
     89 H38         3.6950    4.1760    1.7750 ho        1 MOL      0.402331
     90 H39         4.7550    4.8570   -1.9940 hc        1 MOL      0.092265
     91 H40         5.7080    4.0600   -0.8030 hc        1 MOL      0.092265
     92 H41         4.3250    3.2100   -1.5070 hc        1 MOL      0.092265
     93 N9          1.6810    3.5270   -2.1730 n         1 MOL     -0.754001
     94 C29         1.0350    2.2990   -2.7730 c3        1 MOL      0.089291
     95 C30         1.6270    1.0080   -2.1910 c         1 MOL      0.693878
     96 O16         1.2680    0.5690   -1.1010 o         1 MOL     -0.632270
     97 C31        -0.4730    2.2900   -2.7110 c3        1 MOL      0.405178
     98 C32        -0.9490    3.7330   -3.0560 c3        1 MOL      0.011481
     99 C33        -1.0430    1.2290   -3.6180 c3        1 MOL     -0.269633
    100 C34        -2.4900    3.7640   -3.3040 c3        1 MOL     -0.282499
    101 H42         2.1240    4.1400   -2.8410 hn        1 MOL      0.368828
    102 H43         1.2580    2.2880   -3.8350 h1        1 MOL      0.022644
    103 H44        -0.7560    2.0320   -1.6890 hc        1 MOL     -0.059209
    104 H45        -0.3880    4.0490   -3.9260 hc        1 MOL      0.003748
    105 H46        -0.7630    4.3190   -2.1590 hc        1 MOL      0.003748
    106 H47        -0.8010    1.4260   -4.6590 hc        1 MOL      0.042378
    107 H48        -0.6090    0.2750   -3.3350 hc        1 MOL      0.042378
    108 H49        -2.1300    1.1770   -3.4960 hc        1 MOL      0.042378
    109 H50        -2.8310    4.7880   -3.4800 hc        1 MOL      0.071966
    110 H51        -2.7280    3.2510   -4.2340 hc        1 MOL      0.071966
    111 H52        -2.8920    3.2390   -2.4360 hc        1 MOL      0.071966
    112 N10         2.3040    0.3240   -3.1230 n         1 MOL     -0.605529
    113 C35         2.7970   -1.0840   -3.0450 c3        1 MOL      0.044266
    114 C36         4.3770   -1.3260   -3.2040 c         1 MOL      0.362311
    115 O17         4.8830   -2.4100   -3.3370 o         1 MOL     -0.544122
    116 C37         2.0750   -2.0800   -3.9010 c3        1 MOL      0.352077
    117 C38         2.2580   -1.8330   -5.4960 c3        1 MOL     -0.285094
    118 O18         0.6790   -2.1130   -3.6690 oh        1 MOL     -0.572518
    119 H53         2.6250    0.8410   -3.9190 hn        1 MOL      0.294823
    120 H54         2.6570   -1.4940   -2.0430 h1        1 MOL      0.150416
    121 H55         2.4150   -3.0360   -3.4840 h1        1 MOL      0.002428
    122 H56         0.6170   -2.2470   -2.7160 ho        1 MOL      0.327766
    123 H57         1.9990   -0.7970   -5.7350 hc        1 MOL      0.068958
    124 H58         3.3010   -1.8450   -5.8060 hc        1 MOL      0.068958
    125 H59         1.6250   -2.4900   -6.0840 hc        1 MOL      0.068958
    126 N11         5.1050   -0.2420   -3.0380 n         1 MOL     -0.128243
    127 C39         6.5870   -0.2300   -2.8430 c3        1 MOL      0.009105
    128 C40         6.9210   -0.6130   -1.4480 c         1 MOL      0.519851
    129 O19         7.2330    0.2540   -0.6250 o         1 MOL     -0.499496
    130 C41         7.2240    1.1250   -3.2640 c3        1 MOL      0.145676
    131 C42         7.2650    1.4370   -4.7450 c3        1 MOL     -0.018033
    132 O20         6.4310    2.2310   -2.8650 oh        1 MOL     -0.599870
    133 H60         4.6080    0.6040   -2.8430 hn        1 MOL      0.220683
    134 H61         6.9790   -1.0000   -3.5130 h1        1 MOL      0.076198
    135 H62         8.2550    1.1760   -2.9160 h1        1 MOL      0.053731
    136 H63         7.0570    2.9480   -2.7440 ho        1 MOL      0.411828
    137 H64         6.2590    1.2100   -5.1190 hc        1 MOL     -0.004215
    138 H65         7.4080    2.5170   -4.8460 hc        1 MOL     -0.004215
    139 H66         8.0380    0.9330   -5.3100 hc        1 MOL     -0.004215
    140 N12         6.7400   -1.9480   -1.2020 n         1 MOL     -0.841094
    141 C43         6.5730   -2.4580    0.1760 c3        1 MOL      0.549150
    142 C44         5.2440   -1.9350    0.7830 c         1 MOL      0.436491
    143 O21         4.6700   -0.9040    0.2910 o         1 MOL     -0.472242
    144 C45         7.7840   -2.2070    1.0790 c3        1 MOL     -0.531837
    145 C46         9.0930   -2.4000    0.4010 c3        1 MOL     -0.052469
    146 C47        10.2210   -2.2430    1.4490 c3        1 MOL      0.133633
    147 C48        11.5770   -2.1700    0.7810 c3        1 MOL     -0.129329
    148 N13        12.0200   -3.5460    0.3410 n4        1 MOL     -0.333160
    149 H67         6.4350   -2.5250   -1.9780 hn        1 MOL      0.404995
    150 H68         6.4100   -3.5380    0.0660 h1        1 MOL     -0.018109
    151 H69         7.6900   -2.8880    1.9180 hc        1 MOL      0.159954
    152 H70         7.7450   -1.2100    1.5300 hc        1 MOL      0.159954
    153 H71         9.2710   -1.6080   -0.3330 hc        1 MOL      0.052976
    154 H72         9.2340   -3.3200   -0.1570 hc        1 MOL      0.052976
    155 H73        10.1340   -3.1500    2.0590 hc        1 MOL      0.026578
    156 H74        10.1090   -1.3370    2.0420 hc        1 MOL      0.026578
    157 H75        12.2640   -1.6590    1.4480 hx        1 MOL      0.125281
    158 H76        11.4550   -1.5130   -0.0880 hx        1 MOL      0.125281
    159 H77        12.5040   -3.4470   -0.5330 hn        1 MOL      0.261489
    160 H78        12.6450   -3.9020    1.0610 hn        1 MOL      0.261489
    161 H79        11.1990   -4.0810    0.0730 hn        1 MOL      0.261489
    162 N14         4.8050   -2.6920    1.7660 n         1 MOL     -0.541588
    163 C49         3.6210   -2.4270    2.5600 c3        1 MOL      0.531873
    164 C50         2.3030   -2.2790    1.7360 c         1 MOL      0.096877
    165 O22         1.5560   -1.2860    1.8530 o         1 MOL     -0.482646
    166 C51         3.4340   -3.5350    3.6920 c3        1 MOL     -0.139530
    167 C52         4.6330   -3.5530    4.6790 c3        1 MOL     -0.131679
    168 C53         4.5160   -4.5580    5.8030 c         1 MOL      0.708394
    169 O23         3.7780   -4.3600    6.7910 o         1 MOL     -0.657542
    170 O24         5.2330   -5.6020    5.6850 o         1 MOL     -0.657542
    171 H80         5.2950   -3.5680    1.9120 hn        1 MOL      0.300457
    172 H81         3.7520   -1.4650    3.0640 h1        1 MOL     -0.067610
    173 H82         3.2570   -4.4820    3.1750 hc        1 MOL      0.073100
    174 H83         2.6430   -3.2820    4.3990 hc        1 MOL      0.073100
    175 H84         4.8680   -2.5830    5.1210 hc        1 MOL     -0.015398
    176 H85         5.5980   -3.7770    4.2160 hc        1 MOL     -0.015398
    177 N15         1.9730   -3.2070    0.9040 n         1 MOL     -0.146394
    178 C54         2.5550   -4.4780    0.4390 c3        1 MOL     -0.043113
    179 H86         3.5530   -4.5960    0.8620 h1        1 MOL      0.030804
    180 H87         1.9250   -5.3070    0.7630 h1        1 MOL      0.030804
    181 H88         2.6190   -4.4720   -0.6480 h1        1 MOL      0.030804
    182 H89         1.2250   -2.9240    0.2930 hn        1 MOL      0.276956
    183 Ca1         0.3580    1.0860    1.4120 Ca        1 MOL      1.748087
    184 O25         3.0900    1.2950    1.0390 oh        1 MOL     -0.843574
    185 H90         3.6720    2.0510    1.0540 ho        1 MOL      0.408226
    186 H91         3.6160    0.5830    0.6690 ho        1 MOL      0.408226
    187 O26         1.6960    0.9320    3.6790 oh        1 MOL     -0.843574
    188 H92         2.6090    1.1820    3.5730 ho        1 MOL      0.408226
    189 H93         1.6980    0.3220    4.4230 ho        1 MOL      0.408226
    190 O27        -1.5640   -0.1220    3.2680 oh        1 MOL     -0.843574
    191 H94        -1.7290    0.7220    3.6840 ho        1 MOL      0.408226
    192 H95        -2.2420   -0.1980    2.5970 ho        1 MOL      0.408226
@<TRIPOS>BOND
     1    1    2 1   
     2    1    4 1   
     3    1    5 1   
     4    1    6 1   
     5    2    3 2   
     6    2    7 1   
     7    7    8 1   
     8    7   15 1   
     9    8    9 1   
    10    8   11 1   
    11    8   16 1   
    12    9   10 2   
    13    9   19 1   
    14   11   12 1   
    15   11   17 1   
    16   11   18 1   
    17   12   13 1   
    18   12   14 1   
    19   19   20 1   
    20   19   28 1   
    21   20   21 1   
    22   20   23 1   
    23   20   29 1   
    24   21   22 2   
    25   21   41 1   
    26   23   24 1   
    27   23   30 1   
    28   23   31 1   
    29   24   25 1   
    30   24   32 1   
    31   24   33 1   
    32   25   26 1   
    33   25   34 1   
    34   25   35 1   
    35   26   27 1   
    36   26   36 1   
    37   26   37 1   
    38   27   38 1   
    39   27   39 1   
    40   27   40 1   
    41   41   42 1   
    42   41   49 1   
    43   42   43 1   
    44   42   45 1   
    45   42   50 1   
    46   43   44 2   
    47   43   53 1   
    48   45   46 1   
    49   45   51 1   
    50   45   52 1   
    51   46   47 1   
    52   46   48 1   
    53   53   54 1   
    54   53   57 1   
    55   54   55 1   
    56   54   58 1   
    57   54   59 1   
    58   55   56 2   
    59   55   60 1   
    60   60   61 1   
    61   60   68 1   
    62   61   62 1   
    63   61   64 1   
    64   61   69 1   
    65   62   63 2   
    66   62   72 1   
    67   64   65 1   
    68   64   70 1   
    69   64   71 1   
    70   65   66 1   
    71   65   67 1   
    72   72   73 1   
    73   72   76 1   
    74   73   74 1   
    75   73   77 1   
    76   73   78 1   
    77   74   75 2   
    78   74   79 1   
    79   79   80 1   
    80   79   86 1   
    81   80   81 1   
    82   80   83 1   
    83   80   87 1   
    84   81   82 2   
    85   81   93 1   
    86   83   84 1   
    87   83   85 1   
    88   83   88 1   
    89   84   90 1   
    90   84   91 1   
    91   84   92 1   
    92   85   89 1   
    93   93   94 1   
    94   93  101 1   
    95   94   95 1   
    96   94   97 1   
    97   94  102 1   
    98   95   96 2   
    99   95  112 1   
   100   97   98 1   
   101   97   99 1   
   102   97  103 1   
   103   98  100 1   
   104   98  104 1   
   105   98  105 1   
   106   99  106 1   
   107   99  107 1   
   108   99  108 1   
   109  100  109 1   
   110  100  110 1   
   111  100  111 1   
   112  112  113 1   
   113  112  119 1   
   114  113  114 1   
   115  113  116 1   
   116  113  120 1   
   117  114  115 2   
   118  114  126 1   
   119  116  117 1   
   120  116  118 1   
   121  116  121 1   
   122  117  123 1   
   123  117  124 1   
   124  117  125 1   
   125  118  122 1   
   126  126  127 1   
   127  126  133 1   
   128  127  128 1   
   129  127  130 1   
   130  127  134 1   
   131  128  129 2   
   132  128  140 1   
   133  130  131 1   
   134  130  132 1   
   135  130  135 1   
   136  131  137 1   
   137  131  138 1   
   138  131  139 1   
   139  132  136 1   
   140  140  141 1   
   141  140  149 1   
   142  141  142 1   
   143  141  144 1   
   144  141  150 1   
   145  142  143 2   
   146  142  162 1   
   147  144  145 1   
   148  144  151 1   
   149  144  152 1   
   150  145  146 1   
   151  145  153 1   
   152  145  154 1   
   153  146  147 1   
   154  146  155 1   
   155  146  156 1   
   156  147  148 1   
   157  147  157 1   
   158  147  158 1   
   159  148  159 1   
   160  148  160 1   
   161  148  161 1   
   162  162  163 1   
   163  162  171 1   
   164  163  164 1   
   165  163  166 1   
   166  163  172 1   
   167  164  165 2   
   168  164  177 1   
   169  166  167 1   
   170  166  173 1   
   171  166  174 1   
   172  167  168 1   
   173  167  175 1   
   174  167  176 1   
   175  168  169 1   
   176  168  170 1   
   177  177  178 1   
   178  177  182 1   
   179  178  179 1   
   180  178  180 1   
   181  178  181 1   
   182  184  185 1   
   183  184  186 1   
   184  187  188 1   
   185  187  189 1   
   186  190  191 1   
   187  190  192 1   
@<TRIPOS>SUBSTRUCTURE
     1 MOL         1 TEMP              0 ****  ****    0 ROOT
