@<TRIPOS>MOLECULE
MOL
  191   184     1     0     0
SMALL
resp


@<TRIPOS>ATOM
      1 C1          1.0760    1.4320    2.6030 c3        1 MOL     -0.331911
      2 C2          2.3980    1.3510    1.7180 c         1 MOL      0.704067
      3 O1          2.5080    2.0290    0.7110 o         1 MOL     -0.553889
      4 H1          0.4200    0.5990    2.3520 hc        1 MOL      0.087877
      5 H2          1.3420    1.3790    3.6600 hc        1 MOL      0.087877
      6 H3          0.5620    2.3710    2.4040 hc        1 MOL      0.087877
      7 N1          3.3350    0.5050    2.1650 n         1 MOL     -0.554167
      8 C3          4.6310    0.2750    1.4910 c3        1 MOL     -0.071292
      9 C4          5.0850   -1.2060    1.3920 c         1 MOL      0.596550
     10 O2          6.1910   -1.4220    0.9140 o         1 MOL     -0.452064
     11 C5          5.7140    1.0620    2.2170 c3        1 MOL     -0.158814
     12 C6          5.9280    0.7500    3.6670 c         1 MOL      0.744578
     13 O3          7.0930    1.0140    4.1510 o         1 MOL     -0.720976
     14 O4          5.0580    0.2980    4.4990 o         1 MOL     -0.720976
     15 H4          3.2050    0.1680    3.0990 hn        1 MOL      0.282329
     16 H5          4.6170    0.5910    0.4510 h1        1 MOL      0.137842
     17 H6          5.4450    2.1040    2.0680 hc        1 MOL      0.073653
     18 H7          6.6870    0.9570    1.7350 hc        1 MOL      0.073653
     19 N2          4.2220   -2.1460    1.8300 n         1 MOL     -0.710313
     20 C7          4.4330   -3.6140    1.8230 c3        1 MOL     -0.009587
     21 C8          4.6410   -4.2220    0.4140 c         1 MOL      0.522164
     22 O5          5.0160   -5.3910    0.1840 o         1 MOL     -0.537101
     23 C9          5.6110   -4.0050    2.7790 c3        1 MOL     -0.221896
     24 C10         5.5260   -3.2380    4.0880 c3        1 MOL      0.087199
     25 C11         6.4760   -3.6890    5.1790 c3        1 MOL     -0.008469
     26 C12         6.4110   -2.7470    6.3670 c3        1 MOL     -0.052121
     27 N3          6.9500   -1.3760    5.9940 n4        1 MOL     -0.249202
     28 H8          3.4550   -1.8100    2.3960 hn        1 MOL      0.354164
     29 H9          3.5330   -4.0590    2.2680 h1        1 MOL      0.120231
     30 H10         6.5660   -3.8600    2.2680 hc        1 MOL      0.086605
     31 H11         5.4380   -5.0590    2.9930 hc        1 MOL      0.086605
     32 H12         4.5150   -3.2070    4.5090 hc        1 MOL      0.034816
     33 H13         5.8910   -2.2440    3.8680 hc        1 MOL      0.034816
     34 H14         7.5290   -3.8320    4.9220 hc        1 MOL      0.031170
     35 H15         6.1500   -4.7020    5.4030 hc        1 MOL      0.031170
     36 H16         6.9990   -3.2190    7.1500 hx        1 MOL      0.073166
     37 H17         5.3840   -2.6680    6.7130 hx        1 MOL      0.073166
     38 H18         7.7940   -1.5020    5.4440 hn        1 MOL      0.290301
     39 H19         6.2800   -0.7630    5.5390 hn        1 MOL      0.290301
     40 H20         7.1810   -0.8320    6.8120 hn        1 MOL      0.290301
     41 N4          4.2420   -3.4520   -0.5600 n         1 MOL     -0.378691
     42 C13         4.4860   -3.7780   -2.0130 c3        1 MOL      0.103934
     43 C14         4.7230   -2.5050   -2.7910 c         1 MOL      0.503174
     44 O6          4.2200   -2.2410   -3.8890 o         1 MOL     -0.490427
     45 C15         3.5010   -4.7180   -2.6970 c3        1 MOL     -0.385218
     46 C16         1.9530   -4.3370   -2.5330 c         1 MOL      0.733292
     47 O7          1.0910   -5.1540   -2.8000 o         1 MOL     -0.675300
     48 O8          1.6900   -3.1850   -2.1200 o         1 MOL     -0.675300
     49 H21         3.9190   -2.5240   -0.3220 hn        1 MOL      0.253174
     50 H22         5.4220   -4.3340   -1.9410 h1        1 MOL      0.085240
     51 H23         3.7270   -5.7010   -2.2630 hc        1 MOL      0.118589
     52 H24         3.6790   -4.7180   -3.7690 hc        1 MOL      0.118589
     53 N5          5.6620   -1.6760   -2.2410 n         1 MOL     -0.481120
     54 C17         5.7360   -0.2670   -2.5670 c3        1 MOL      0.027527
     55 C18         7.0530    0.3530   -2.2140 c         1 MOL      0.639055
     56 O9          8.0870   -0.2760   -2.3040 o         1 MOL     -0.544668
     57 H25         6.3830   -2.1040   -1.6700 hn        1 MOL      0.277917
     58 H26         4.9880    0.2810   -1.9940 h1        1 MOL      0.087323
     59 H27         5.5860   -0.1360   -3.6370 h1        1 MOL      0.087323
     60 N6          7.0610    1.6730   -1.8910 n         1 MOL     -0.782797
     61 C19         6.0830    2.8140   -1.9870 c3        1 MOL      0.479766
     62 C20         5.9590    3.6000   -0.6810 c         1 MOL      0.521441
     63 O10         6.9040    3.6300    0.1290 o         1 MOL     -0.523450
     64 C21         6.6720    3.6290   -3.1050 c3        1 MOL     -0.389223
     65 C22         6.6910    2.7940   -4.3630 c         1 MOL      0.556412
     66 N7          7.8540    2.3170   -4.7930 n         1 MOL     -0.584914
     67 O11         5.6240    2.4490   -4.8580 o         1 MOL     -0.525347
     68 H28         7.9430    1.9690   -1.4840 hn        1 MOL      0.362773
     69 H29         5.1030    2.4360   -2.2990 h1        1 MOL     -0.036748
     70 H30         7.6250    4.1170   -2.9030 hc        1 MOL      0.101442
     71 H31         5.9810    4.4390   -3.3080 hc        1 MOL      0.101442
     72 H32         8.6750    2.8390   -4.5200 hn        1 MOL      0.315300
     73 H33         7.9580    1.8280   -5.6710 hn        1 MOL      0.315300
     74 N8          4.8010    4.2950   -0.5280 n         1 MOL     -0.598994
     75 C23         3.4990    4.1520   -1.3850 c3        1 MOL      0.038623
     76 C24         2.4280    5.0860   -0.8910 c         1 MOL      0.674039
     77 O12         2.6920    6.2010   -0.3770 o         1 MOL     -0.558414
     78 H34         4.6440    4.7750    0.3480 hn        1 MOL      0.357430
     79 H35         3.0970    3.1340   -1.3260 h1        1 MOL      0.048655
     80 H36         3.6320    4.3690   -2.4530 h1        1 MOL      0.048655
     81 N9          1.1950    4.6180   -1.0470 n         1 MOL     -0.598605
     82 C25         0.0310    5.3040   -0.4550 c3        1 MOL      0.194076
     83 C26        -1.1260    4.3390   -0.1040 c         1 MOL      0.502867
     84 O13        -0.9950    3.1530   -0.5220 o         1 MOL     -0.533449
     85 C27        -0.4870    6.4630   -1.3220 c3        1 MOL     -0.185325
     86 C28        -1.6460    7.2920   -0.6700 ca        1 MOL      0.059071
     87 C29        -2.8680    7.2120   -1.2930 ca        1 MOL     -0.172030
     88 C30        -1.4820    7.9270    0.6160 ca        1 MOL     -0.172030
     89 C31        -3.9590    7.9010   -0.6890 ca        1 MOL     -0.214416
     90 C32        -2.5830    8.6540    1.1380 ca        1 MOL     -0.214416
     91 C33        -3.8220    8.6680    0.4820 ca        1 MOL      0.339366
     92 O14        -4.8670    9.3910    1.0130 oh        1 MOL     -0.508979
     93 H37         0.9670    3.9760   -1.7860 hn        1 MOL      0.318744
     94 H38         0.3520    5.6860    0.5120 h1        1 MOL      0.051004
     95 H39        -0.7920    5.9850   -2.2430 hc        1 MOL      0.081109
     96 H40         0.3520    7.0920   -1.6310 hc        1 MOL      0.081109
     97 H41        -3.0770    6.6110   -2.1600 ha        1 MOL      0.148612
     98 H42        -0.4930    7.8750    1.0430 ha        1 MOL      0.148612
     99 H43        -4.9200    7.8530   -1.1710 ha        1 MOL      0.134960
    100 H44        -2.4940    9.2320    2.0470 ha        1 MOL      0.134960
    101 H45        -4.7400    9.5050    1.9650 ho        1 MOL      0.364309
    102 N10        -2.0770    4.6690    0.7500 n         1 MOL     -0.309096
    103 C34        -3.1380    3.7510    1.2390 c3        1 MOL     -0.229771
    104 C35        -4.0740    3.4300    0.0370 c         1 MOL      0.607241
    105 O15        -4.1440    4.1700   -0.9310 o         1 MOL     -0.473568
    106 C36        -3.9120    4.4330    2.3940 c3        1 MOL      0.430061
    107 C37        -4.7630    5.6760    2.0590 c3        1 MOL     -0.163693
    108 C38        -4.8750    3.5000    3.1800 c3        1 MOL     -0.603619
    109 C39        -5.0640    6.7720    3.1380 c3        1 MOL     -0.072049
    110 H46        -2.1250    5.6280    1.0660 hn        1 MOL      0.140229
    111 H47        -2.7020    2.8800    1.7250 h1        1 MOL      0.129009
    112 H48        -3.1220    4.7600    3.0730 hc        1 MOL     -0.024352
    113 H49        -5.6900    5.2530    1.6550 hc        1 MOL      0.063673
    114 H50        -4.3160    6.2360    1.2410 hc        1 MOL      0.063673
    115 H51        -4.2670    2.6230    3.3950 hc        1 MOL      0.152572
    116 H52        -5.2170    3.9220    4.1330 hc        1 MOL      0.152572
    117 H53        -5.7530    3.2020    2.6140 hc        1 MOL      0.152572
    118 H54        -4.1510    7.2750    3.4660 hc        1 MOL      0.021621
    119 H55        -5.8410    7.4810    2.8480 hc        1 MOL      0.021621
    120 H56        -5.4480    6.3140    4.0630 hc        1 MOL      0.021621
    121 N11        -4.8340    2.2970    0.1140 n         1 MOL     -0.552864
    122 C40        -5.7670    1.8440   -0.8900 c3        1 MOL      0.129406
    123 C41        -5.3990    0.5020   -1.5120 c         1 MOL      0.687687
    124 O16        -4.5830   -0.2140   -0.9550 o         1 MOL     -0.522501
    125 C42        -7.1830    1.7870   -0.2660 c3        1 MOL     -0.040460
    126 O17        -6.9910    0.8460    0.7490 oh        1 MOL     -0.587721
    127 H57        -4.8830    1.8550    1.0160 hn        1 MOL      0.311185
    128 H58        -5.8380    2.5740   -1.6940 h1        1 MOL      0.026365
    129 H59        -7.9710    1.4700   -0.9440 h1        1 MOL      0.082048
    130 H60        -7.2610    2.7470    0.2400 h1        1 MOL      0.082048
    131 H61        -7.5700    0.1050    0.5320 ho        1 MOL      0.434127
    132 N12        -5.9900    0.1560   -2.6400 n         1 MOL     -0.653814
    133 C43        -5.7360   -1.1100   -3.3180 c3        1 MOL      0.314950
    134 C44        -6.0080   -2.3070   -2.4110 c         1 MOL      0.442329
    135 O18        -5.0950   -3.0950   -2.1830 o         1 MOL     -0.442636
    136 C45        -4.3620   -1.1140   -4.0090 c3        1 MOL     -0.284557
    137 H62        -6.5610    0.8510   -3.0880 hn        1 MOL      0.315993
    138 H63        -6.4520   -1.3070   -4.1100 h1        1 MOL      0.022310
    139 H64        -4.3220   -0.1700   -4.5370 hc        1 MOL      0.073946
    140 H65        -3.5100   -1.1440   -3.3320 hc        1 MOL      0.073946
    141 H66        -4.3180   -1.8930   -4.7760 hc        1 MOL      0.073946
    142 N13        -7.2700   -2.4650   -1.9230 n         1 MOL     -0.485081
    143 C46        -7.8010   -3.6680   -1.2910 c3        1 MOL      0.286647
    144 C47        -6.9470   -4.3300   -0.2410 c         1 MOL      0.533867
    145 O19        -6.6110   -5.4960   -0.3900 o         1 MOL     -0.500009
    146 C48        -8.2070   -4.6160   -2.4680 c3        1 MOL     -0.389776
    147 H67        -7.9510   -1.7180   -1.9740 hn        1 MOL      0.257591
    148 H68        -8.7430   -3.4970   -0.7570 h1        1 MOL      0.017660
    149 H69        -8.5720   -4.0350   -3.3130 hc        1 MOL      0.109140
    150 H70        -7.2720   -5.0520   -2.8050 hc        1 MOL      0.109140
    151 H71        -8.9070   -5.3770   -2.1130 hc        1 MOL      0.109140
    152 N14        -6.5510   -3.5060    0.7200 n         1 MOL     -0.569300
    153 C49        -5.4310   -3.7320    1.7000 c3        1 MOL      0.065013
    154 C50        -5.9480   -3.5210    3.1860 c         1 MOL      0.464457
    155 O20        -5.5330   -4.3140    4.0490 o         1 MOL     -0.489321
    156 C51        -4.1540   -2.8620    1.3830 c3        1 MOL     -0.005876
    157 C52        -2.7880   -3.1260    2.0130 c3        1 MOL     -0.106398
    158 C53        -2.2580   -4.4890    1.5880 c         1 MOL      0.648927
    159 O21        -2.2160   -4.7420    0.3600 o         1 MOL     -0.671593
    160 O22        -1.9480   -5.3370    2.4200 o         1 MOL     -0.671593
    161 H72        -7.0080   -2.6040    0.7510 hn        1 MOL      0.193866
    162 H73        -5.1900   -4.7810    1.5320 h1        1 MOL      0.154344
    163 H74        -4.3910   -1.7990    1.4740 hc        1 MOL      0.009249
    164 H75        -4.0360   -3.0790    0.3170 hc        1 MOL      0.009249
    165 H76        -2.7970   -3.0830    3.1050 hc        1 MOL      0.009564
    166 H77        -2.0280   -2.4040    1.6900 hc        1 MOL      0.009564
    167 N15        -6.9870   -2.7110    3.3680 n         1 MOL     -0.295394
    168 C54        -7.6330   -2.5060    4.7020 c3        1 MOL     -0.247778
    169 H78        -6.8630   -2.4290    5.4690 h1        1 MOL      0.119954
    170 H79        -8.2210   -1.5890    4.6850 h1        1 MOL      0.119954
    171 H80        -8.2840   -3.3510    4.9250 h1        1 MOL      0.119954
    172 H81        -7.2650   -2.1830    2.5430 hn        1 MOL      0.237047
    173 Ca1        -0.7970   -3.8610   -1.4760 Ca        1 MOL      1.714566
    174 O23        -2.8330   -3.8110   -3.1320 oh        1 MOL     -0.839194
    175 H82        -3.7110   -3.6120   -2.8150 ho        1 MOL      0.407274
    176 H83        -2.8870   -3.7420   -4.0860 ho        1 MOL      0.407274
    177 O24        -1.9070   -6.5580   -1.9680 oh        1 MOL     -0.839194
    178 H84        -2.8550   -6.6450   -1.9830 ho        1 MOL      0.407274
    179 H85        -1.5910   -7.3970   -1.6280 ho        1 MOL      0.407274
    180 O25         0.4750   -2.6360    0.5520 oh        1 MOL     -0.839194
    181 H86         1.2600   -2.2570    0.1440 ho        1 MOL      0.407274
    182 H87         0.6800   -2.6700    1.4860 ho        1 MOL      0.407274
    183 O26         0.4660   -5.9160   -0.1790 oh        1 MOL     -0.839194
    184 H88         1.3430   -5.9590    0.2170 ho        1 MOL      0.407274
    185 H89        -0.0410   -6.5660    0.3040 ho        1 MOL      0.407274
    186 O27        -0.4450   -1.9960   -3.6940 oh        1 MOL     -0.839194
    187 H90         0.2720   -1.3610   -3.7830 ho        1 MOL      0.407274
    188 H91        -1.1130   -1.6750   -4.3030 ho        1 MOL      0.407274
    189 O28        -1.9380   -1.6220   -0.8260 oh        1 MOL     -0.839194
    190 H92        -2.8630   -1.4220   -0.9520 ho        1 MOL      0.407274
    191 H93        -1.4850   -0.8800   -1.2380 ho        1 MOL      0.407274
@<TRIPOS>BOND
     1    1    2 1   
     2    1    4 1   
     3    1    5 1   
     4    1    6 1   
     5    2    3 2   
     6    2    7 1   
     7    7    8 1   
     8    7   15 1   
     9    8    9 1   
    10    8   11 1   
    11    8   16 1   
    12    9   10 2   
    13    9   19 1   
    14   11   12 1   
    15   11   17 1   
    16   11   18 1   
    17   12   13 1   
    18   12   14 1   
    19   19   20 1   
    20   19   28 1   
    21   20   21 1   
    22   20   23 1   
    23   20   29 1   
    24   21   22 2   
    25   21   41 1   
    26   23   24 1   
    27   23   30 1   
    28   23   31 1   
    29   24   25 1   
    30   24   32 1   
    31   24   33 1   
    32   25   26 1   
    33   25   34 1   
    34   25   35 1   
    35   26   27 1   
    36   26   36 1   
    37   26   37 1   
    38   27   38 1   
    39   27   39 1   
    40   27   40 1   
    41   41   42 1   
    42   41   49 1   
    43   42   43 1   
    44   42   45 1   
    45   42   50 1   
    46   43   44 2   
    47   43   53 1   
    48   45   46 1   
    49   45   51 1   
    50   45   52 1   
    51   46   47 1   
    52   46   48 1   
    53   53   54 1   
    54   53   57 1   
    55   54   55 1   
    56   54   58 1   
    57   54   59 1   
    58   55   56 2   
    59   55   60 1   
    60   60   61 1   
    61   60   68 1   
    62   61   62 1   
    63   61   64 1   
    64   61   69 1   
    65   62   63 2   
    66   62   74 1   
    67   64   65 1   
    68   64   70 1   
    69   64   71 1   
    70   65   66 1   
    71   65   67 2   
    72   66   72 1   
    73   66   73 1   
    74   74   75 1   
    75   74   78 1   
    76   75   76 1   
    77   75   79 1   
    78   75   80 1   
    79   76   77 2   
    80   76   81 1   
    81   81   82 1   
    82   81   93 1   
    83   82   83 1   
    84   82   85 1   
    85   82   94 1   
    86   83   84 2   
    87   83  102 1   
    88   85   86 1   
    89   85   95 1   
    90   85   96 1   
    91   86   87 ar  
    92   86   88 ar  
    93   87   89 ar  
    94   87   97 1   
    95   88   90 ar  
    96   88   98 1   
    97   89   91 ar  
    98   89   99 1   
    99   90   91 ar  
   100   90  100 1   
   101   91   92 1   
   102   92  101 1   
   103  102  103 1   
   104  102  110 1   
   105  103  104 1   
   106  103  106 1   
   107  103  111 1   
   108  104  105 2   
   109  104  121 1   
   110  106  107 1   
   111  106  108 1   
   112  106  112 1   
   113  107  109 1   
   114  107  113 1   
   115  107  114 1   
   116  108  115 1   
   117  108  116 1   
   118  108  117 1   
   119  109  118 1   
   120  109  119 1   
   121  109  120 1   
   122  121  122 1   
   123  121  127 1   
   124  122  123 1   
   125  122  125 1   
   126  122  128 1   
   127  123  124 2   
   128  123  132 1   
   129  125  126 1   
   130  125  129 1   
   131  125  130 1   
   132  126  131 1   
   133  132  133 1   
   134  132  137 1   
   135  133  134 1   
   136  133  136 1   
   137  133  138 1   
   138  134  135 2   
   139  134  142 1   
   140  136  139 1   
   141  136  140 1   
   142  136  141 1   
   143  142  143 1   
   144  142  147 1   
   145  143  144 1   
   146  143  146 1   
   147  143  148 1   
   148  144  145 2   
   149  144  152 1   
   150  146  149 1   
   151  146  150 1   
   152  146  151 1   
   153  152  153 1   
   154  152  161 1   
   155  153  154 1   
   156  153  156 1   
   157  153  162 1   
   158  154  155 2   
   159  154  167 1   
   160  156  157 1   
   161  156  163 1   
   162  156  164 1   
   163  157  158 1   
   164  157  165 1   
   165  157  166 1   
   166  158  159 1   
   167  158  160 1   
   168  167  168 1   
   169  167  172 1   
   170  168  169 1   
   171  168  170 1   
   172  168  171 1   
   173  174  175 1   
   174  174  176 1   
   175  177  178 1   
   176  177  179 1   
   177  180  181 1   
   178  180  182 1   
   179  183  184 1   
   180  183  185 1   
   181  186  187 1   
   182  186  188 1   
   183  189  190 1   
   184  189  191 1   
@<TRIPOS>SUBSTRUCTURE
     1 MOL         1 TEMP              0 ****  ****    0 ROOT
