@<TRIPOS>MOLECULE
MOL
  192   187     1     0     0
SMALL
resp


@<TRIPOS>ATOM
      1 C1         -9.6900   -0.5300   -1.8370 c3        1 MOL     -0.450988
      2 C2         -8.3910   -0.8180   -1.0810 c         1 MOL      0.699907
      3 O1         -7.3690   -1.0720   -1.6590 o         1 MOL     -0.648907
      4 H1         -9.4560   -0.1210   -2.8190 hc        1 MOL      0.114447
      5 H2        -10.2550   -1.4550   -1.9550 hc        1 MOL      0.114447
      6 H3        -10.2860    0.1900   -1.2760 hc        1 MOL      0.114447
      7 N1         -8.4840   -0.5670    0.2100 n         1 MOL     -0.478943
      8 C3         -7.3520   -0.6000    1.1980 c3        1 MOL     -0.032738
      9 C4         -6.7270   -1.9500    1.4540 c         1 MOL      0.454082
     10 O2         -6.5490   -2.4370    2.5910 o         1 MOL     -0.437719
     11 C5         -7.7140    0.2270    2.4150 c3        1 MOL     -0.265594
     12 C6         -8.9960   -0.2660    3.1720 c         1 MOL      0.735771
     13 O3         -9.4990   -1.3180    2.7500 o         1 MOL     -0.650995
     14 O4         -9.4780    0.3840    4.1230 o         1 MOL     -0.650995
     15 H4         -9.4180   -0.5670    0.6010 hn        1 MOL      0.290292
     16 H5         -6.5680   -0.0110    0.7090 h1        1 MOL      0.132117
     17 H6         -7.8360    1.2240    1.9880 hc        1 MOL      0.076298
     18 H7         -6.8520    0.3270    3.0850 hc        1 MOL      0.076298
     19 N2         -6.3670   -2.6390    0.3710 n         1 MOL     -0.279082
     20 C7         -5.8080   -3.9550    0.3680 c3        1 MOL      0.056000
     21 C8         -4.3960   -3.9200    0.8320 c         1 MOL      0.399199
     22 O5         -3.9750   -4.7430    1.6460 o         1 MOL     -0.526315
     23 C9         -5.9080   -4.5020   -1.0970 c3        1 MOL     -0.009480
     24 C10        -7.4120   -4.5820   -1.5360 c3        1 MOL     -0.057838
     25 C11        -7.5180   -5.4360   -2.8440 c3        1 MOL     -0.047743
     26 C12        -8.8870   -5.1290   -3.4370 c3        1 MOL      0.101870
     27 N3         -9.1010   -5.7650   -4.7590 n4        1 MOL     -0.343110
     28 H8         -6.5380   -2.2410   -0.5400 hn        1 MOL      0.196046
     29 H9         -6.2630   -4.6550    1.0600 h1        1 MOL      0.078215
     30 H10        -5.4890   -5.5060   -1.1260 hc        1 MOL      0.026067
     31 H11        -5.3980   -3.8510   -1.8060 hc        1 MOL      0.026067
     32 H12        -7.7610   -3.5620   -1.6500 hc        1 MOL      0.029578
     33 H13        -7.9680   -5.0680   -0.7330 hc        1 MOL      0.029578
     34 H14        -7.4100   -6.5060   -2.6710 hc        1 MOL      0.038640
     35 H15        -6.6490   -5.2230   -3.4710 hc        1 MOL      0.038640
     36 H16        -9.1570   -4.0790   -3.4770 hx        1 MOL      0.064732
     37 H17        -9.6690   -5.4990   -2.7690 hx        1 MOL      0.064732
     38 H18       -10.0900   -5.8430   -4.9490 hn        1 MOL      0.273332
     39 H19        -8.5500   -5.3010   -5.4760 hn        1 MOL      0.273332
     40 H20        -8.8060   -6.7330   -4.7590 hn        1 MOL      0.273332
     41 N4         -3.5380   -3.0160    0.3620 n         1 MOL     -0.313392
     42 C13        -3.5920   -1.9800   -0.5880 c3        1 MOL     -0.061152
     43 C14        -3.9800   -0.6430    0.0700 c         1 MOL      0.302796
     44 O6         -3.8740   -0.4370    1.2960 o         1 MOL     -0.411156
     45 C15        -2.3740   -1.9240   -1.4730 c3        1 MOL     -0.288092
     46 C16        -1.0230   -2.0830   -0.8320 c         1 MOL      0.786602
     47 O7         -0.7600   -1.2940    0.1310 o         1 MOL     -0.696672
     48 O8         -0.1460   -2.9690   -1.1700 o         1 MOL     -0.696672
     49 H21        -2.6660   -3.1180    0.8640 hn        1 MOL      0.317492
     50 H22        -4.4010   -2.1710   -1.3010 h1        1 MOL      0.109709
     51 H23        -2.3740   -0.9710   -1.9960 hc        1 MOL      0.066324
     52 H24        -2.5550   -2.7660   -2.1440 hc        1 MOL      0.066324
     53 N5         -4.6370    0.2030   -0.7230 n         1 MOL     -0.004622
     54 C17        -4.6040    1.6290   -0.4720 c3        1 MOL     -0.322340
     55 C18        -3.4430    2.2990    0.2320 c         1 MOL      0.728591
     56 O9         -2.3520    1.8480    0.3980 o         1 MOL     -0.627672
     57 H25        -4.7910   -0.0360   -1.7000 hn        1 MOL      0.205444
     58 H26        -5.4500    1.7360    0.2100 h1        1 MOL      0.089543
     59 H27        -4.7410    2.2200   -1.3820 h1        1 MOL      0.089543
     60 N6         -3.7140    3.4810    0.7360 n         1 MOL     -0.541340
     61 C19        -2.8560    4.5480    1.3170 c3        1 MOL      0.289417
     62 C20        -3.4790    5.9420    1.0860 c         1 MOL      0.422434
     63 O10        -4.6380    6.1390    0.6420 o         1 MOL     -0.519758
     64 C21        -2.7390    4.3160    2.8200 c3        1 MOL     -0.317671
     65 C22        -1.8650    3.1430    3.2530 c         1 MOL      0.699062
     66 O11        -2.1940    2.5000    4.2570 o         1 MOL     -0.668046
     67 O12        -0.8320    2.8760    2.6420 o         1 MOL     -0.668046
     68 H28        -4.6800    3.7390    0.5840 hn        1 MOL      0.267364
     69 H29        -1.8620    4.4720    0.8790 h1        1 MOL      0.071874
     70 H30        -3.7440    4.2900    3.2400 hc        1 MOL      0.086139
     71 H31        -2.3660    5.2030    3.3370 hc        1 MOL      0.086139
     72 N7         -2.6530    6.9950    1.2250 n         1 MOL     -0.445142
     73 C23        -1.1530    6.9930    1.5130 c3        1 MOL     -0.020299
     74 C24        -0.3260    6.4570    0.3280 c         1 MOL      0.608190
     75 O13        -0.5220    6.6440   -0.8740 o         1 MOL     -0.531532
     76 H32        -3.1350    7.8690    1.0160 hn        1 MOL      0.317982
     77 H33        -0.9070    6.4060    2.3970 h1        1 MOL      0.063246
     78 H34        -0.8270    8.0300    1.6480 h1        1 MOL      0.063246
     79 N8          0.7460    5.7340    0.7380 n         1 MOL     -0.608550
     80 C25         1.7210    5.1780   -0.2210 c3        1 MOL      0.193285
     81 C26         1.0540    3.9560   -0.9070 c         1 MOL      0.593291
     82 O14         0.2980    3.2390   -0.2120 o         1 MOL     -0.541185
     83 C27         3.0970    4.8930    0.3450 c3        1 MOL      0.080342
     84 C28         4.2270    4.3740   -0.4560 c3        1 MOL     -0.277040
     85 O15         3.1870    4.1630    1.5970 oh        1 MOL     -0.659442
     86 H35         0.7660    5.4970    1.7240 hn        1 MOL      0.341140
     87 H36         1.9260    5.8890   -1.0150 h1        1 MOL      0.049992
     88 H37         3.4290    5.8770    0.6640 h1        1 MOL      0.065422
     89 H38         3.9390    4.6120    1.9760 ho        1 MOL      0.461628
     90 H39         4.4050    4.8190   -1.4300 hc        1 MOL      0.089518
     91 H40         5.1950    4.4610    0.0370 hc        1 MOL      0.089518
     92 H41         4.0550    3.3200   -0.6790 hc        1 MOL      0.089518
     93 N9          1.3310    3.6590   -2.1670 n         1 MOL     -0.719192
     94 C29         0.8100    2.5840   -2.9150 c3        1 MOL      0.075799
     95 C30         1.0530    1.2380   -2.2770 c         1 MOL      0.666777
     96 O16         0.3630    0.8240   -1.3440 o         1 MOL     -0.572511
     97 C31        -0.5750    2.7160   -3.4870 c3        1 MOL      0.265166
     98 C32        -1.0700    4.1030   -3.7810 c3        1 MOL      0.131374
     99 C33        -0.5790    1.8800   -4.8050 c3        1 MOL     -0.399680
    100 C34        -2.5210    4.1910   -4.2100 c3        1 MOL     -0.192291
    101 H42         1.9700    4.3240   -2.5770 hn        1 MOL      0.343553
    102 H43         1.4230    2.4670   -3.8030 h1        1 MOL      0.037650
    103 H44        -1.2800    2.2810   -2.7900 hc        1 MOL     -0.004021
    104 H45        -0.4820    4.5590   -4.5720 hc        1 MOL     -0.034904
    105 H46        -0.9360    4.6680   -2.8550 hc        1 MOL     -0.034904
    106 H47        -1.5150    1.9630   -5.3640 hc        1 MOL      0.083373
    107 H48         0.2690    2.1980   -5.4100 hc        1 MOL      0.083373
    108 H49        -0.4380    0.8320   -4.5410 hc        1 MOL      0.083373
    109 H50        -3.1580    3.6090   -3.5420 hc        1 MOL      0.050727
    110 H51        -2.8360    5.2410   -4.2250 hc        1 MOL      0.050727
    111 H52        -2.5600    3.7200   -5.1880 hc        1 MOL      0.050727
    112 N10         1.9300    0.4400   -2.9030 n         1 MOL     -0.463632
    113 C35         2.2840   -0.9500   -2.6080 c3        1 MOL     -0.181844
    114 C36         3.8500   -1.1730   -2.4930 c         1 MOL      0.629371
    115 O17         4.2620   -2.2920   -2.0460 o         1 MOL     -0.597326
    116 C37         1.9150   -1.9400   -3.7030 c3        1 MOL      0.434737
    117 C38         2.1750   -1.5250   -5.1390 c3        1 MOL     -0.408697
    118 O18         0.5230   -2.2560   -3.6100 oh        1 MOL     -0.616976
    119 H53         2.3350    0.8340   -3.7400 hn        1 MOL      0.265802
    120 H54         1.8940   -1.1150   -1.6070 h1        1 MOL      0.244542
    121 H55         2.4470   -2.8540   -3.4410 h1        1 MOL      0.014481
    122 H56         0.3400   -2.5590   -2.7230 ho        1 MOL      0.336119
    123 H57         2.1970   -2.4510   -5.7210 hc        1 MOL      0.100178
    124 H58         1.3600   -0.9300   -5.5610 hc        1 MOL      0.100178
    125 H59         3.0820   -0.9290   -5.2890 hc        1 MOL      0.100178
    126 N11         4.7490   -0.2380   -2.8210 n         1 MOL     -0.526850
    127 C39         6.2880   -0.4220   -2.6230 c3        1 MOL      0.038218
    128 C40         6.5520   -0.7570   -1.1220 c         1 MOL      0.403690
    129 O19         6.1350   -0.0600   -0.2080 o         1 MOL     -0.467758
    130 C41         6.9880    0.8790   -3.0740 c3        1 MOL      0.322819
    131 C42         8.4710    0.8160   -2.7730 c3        1 MOL     -0.394016
    132 O20         6.8550    0.9810   -4.4530 oh        1 MOL     -0.602525
    133 H60         4.4360    0.5590   -3.3470 hn        1 MOL      0.272345
    134 H61         6.6550   -1.2370   -3.2490 h1        1 MOL      0.121942
    135 H62         6.6480    1.7270   -2.4760 h1        1 MOL      0.003795
    136 H63         6.9720    1.9020   -4.6990 ho        1 MOL      0.395947
    137 H64         8.7170    1.0500   -1.7330 hc        1 MOL      0.110840
    138 H65         8.8830   -0.1840   -2.9290 hc        1 MOL      0.110840
    139 H66         9.0180    1.5850   -3.3170 hc        1 MOL      0.110840
    140 N12         7.3130   -1.8330   -0.9040 n         1 MOL     -0.406310
    141 C43         7.6870   -2.3450    0.4400 c3        1 MOL      0.054014
    142 C44         6.5750   -2.3930    1.5120 c         1 MOL      0.595573
    143 O21         6.8470   -2.1230    2.6610 o         1 MOL     -0.488062
    144 C45         9.0240   -1.5970    0.9400 c3        1 MOL      0.028001
    145 C46        10.1990   -1.6880   -0.0600 c3        1 MOL     -0.052656
    146 C47        11.5600   -1.6780    0.6760 c3        1 MOL      0.115123
    147 C48        12.7140   -1.7290   -0.3040 c3        1 MOL      0.053285
    148 N13        13.9660   -2.0330    0.4330 n4        1 MOL     -0.212638
    149 H67         7.7040   -2.3020   -1.7060 hn        1 MOL      0.252484
    150 H68         7.9770   -3.3930    0.3960 h1        1 MOL      0.081261
    151 H69         9.3280   -2.0210    1.9010 hc        1 MOL      0.028926
    152 H70         8.7840   -0.5510    1.1620 hc        1 MOL      0.028926
    153 H71        10.2130   -0.9020   -0.8100 hc        1 MOL     -0.010641
    154 H72        10.0690   -2.6950   -0.4560 hc        1 MOL     -0.010641
    155 H73        11.5350   -2.4810    1.4170 hc        1 MOL     -0.005270
    156 H74        11.6340   -0.7430    1.2280 hc        1 MOL     -0.005270
    157 H75        12.7980   -0.8570   -0.9520 hx        1 MOL      0.046686
    158 H76        12.5280   -2.5780   -0.9650 hx        1 MOL      0.046686
    159 H77        14.7180   -2.3280   -0.1810 hn        1 MOL      0.199487
    160 H78        14.1760   -1.2100    0.9810 hn        1 MOL      0.199487
    161 H79        13.7640   -2.8340    1.0060 hn        1 MOL      0.199487
    162 N14         5.3140   -2.7730    1.1410 n         1 MOL     -0.837102
    163 C49         4.1000   -2.3980    1.9720 c3        1 MOL      0.633630
    164 C50         2.8320   -2.2200    1.1680 c         1 MOL      0.312343
    165 O22         2.2030   -1.1740    1.2370 o         1 MOL     -0.603010
    166 C51         4.0610   -3.2650    3.2250 c3        1 MOL     -0.182874
    167 C52         3.9980   -2.4840    4.5430 c3        1 MOL     -0.184100
    168 C53         4.1610   -3.3210    5.8750 c         1 MOL      0.675888
    169 O23         4.2470   -2.6470    6.9470 o         1 MOL     -0.594861
    170 O24         4.5090   -4.5230    5.9360 o         1 MOL     -0.594861
    171 H80         5.1300   -3.0030    0.1750 hn        1 MOL      0.396852
    172 H81         4.2370   -1.4040    2.3810 h1        1 MOL     -0.047288
    173 H82         4.8740   -3.9890    3.3160 hc        1 MOL      0.050505
    174 H83         3.3020   -4.0460    3.2050 hc        1 MOL      0.050505
    175 H84         3.0790   -1.8980    4.6190 hc        1 MOL      0.042481
    176 H85         4.8000   -1.7490    4.4060 hc        1 MOL      0.042481
    177 N15         2.3090   -3.1950    0.4280 n         1 MOL     -0.213303
    178 C54         2.6170   -4.6910    0.4840 c3        1 MOL     -0.227714
    179 H86         2.6160   -5.0230    1.5220 h1        1 MOL      0.099742
    180 H87         1.8590   -5.2400   -0.0740 h1        1 MOL      0.099742
    181 H88         3.5970   -4.8770    0.0450 h1        1 MOL      0.099742
    182 H89         1.4300   -2.9630   -0.0060 hn        1 MOL      0.272867
    183 Ca1         0.0620    0.9030    1.1530 Ca        1 MOL      1.765186
    184 O25        -1.7190    0.1040    2.9580 oh        1 MOL     -0.862032
    185 H90        -2.5680   -0.3470    2.9890 ho        1 MOL      0.416773
    186 H91        -1.8410    0.8820    3.5000 ho        1 MOL      0.416773
    187 O26         2.6420    1.6220    0.6580 oh        1 MOL     -0.862032
    188 H92         3.2870    1.0180    1.0320 ho        1 MOL      0.416773
    189 H93         2.9900    2.4920    0.8600 ho        1 MOL      0.416773
    190 O27         1.2190    1.0370    3.5840 oh        1 MOL     -0.862032
    191 H94         0.9110    1.5910    4.3010 ho        1 MOL      0.416773
    192 H95         2.1710    1.1400    3.5810 ho        1 MOL      0.416773
@<TRIPOS>BOND
     1    1    2 1   
     2    1    4 1   
     3    1    5 1   
     4    1    6 1   
     5    2    3 2   
     6    2    7 1   
     7    7    8 1   
     8    7   15 1   
     9    8    9 1   
    10    8   11 1   
    11    8   16 1   
    12    9   10 2   
    13    9   19 1   
    14   11   12 1   
    15   11   17 1   
    16   11   18 1   
    17   12   13 1   
    18   12   14 1   
    19   19   20 1   
    20   19   28 1   
    21   20   21 1   
    22   20   23 1   
    23   20   29 1   
    24   21   22 2   
    25   21   41 1   
    26   23   24 1   
    27   23   30 1   
    28   23   31 1   
    29   24   25 1   
    30   24   32 1   
    31   24   33 1   
    32   25   26 1   
    33   25   34 1   
    34   25   35 1   
    35   26   27 1   
    36   26   36 1   
    37   26   37 1   
    38   27   38 1   
    39   27   39 1   
    40   27   40 1   
    41   41   42 1   
    42   41   49 1   
    43   42   43 1   
    44   42   45 1   
    45   42   50 1   
    46   43   44 2   
    47   43   53 1   
    48   45   46 1   
    49   45   51 1   
    50   45   52 1   
    51   46   47 1   
    52   46   48 1   
    53   53   54 1   
    54   53   57 1   
    55   54   55 1   
    56   54   58 1   
    57   54   59 1   
    58   55   56 2   
    59   55   60 1   
    60   60   61 1   
    61   60   68 1   
    62   61   62 1   
    63   61   64 1   
    64   61   69 1   
    65   62   63 2   
    66   62   72 1   
    67   64   65 1   
    68   64   70 1   
    69   64   71 1   
    70   65   66 1   
    71   65   67 1   
    72   72   73 1   
    73   72   76 1   
    74   73   74 1   
    75   73   77 1   
    76   73   78 1   
    77   74   75 2   
    78   74   79 1   
    79   79   80 1   
    80   79   86 1   
    81   80   81 1   
    82   80   83 1   
    83   80   87 1   
    84   81   82 2   
    85   81   93 1   
    86   83   84 1   
    87   83   85 1   
    88   83   88 1   
    89   84   90 1   
    90   84   91 1   
    91   84   92 1   
    92   85   89 1   
    93   93   94 1   
    94   93  101 1   
    95   94   95 1   
    96   94   97 1   
    97   94  102 1   
    98   95   96 2   
    99   95  112 1   
   100   97   98 1   
   101   97   99 1   
   102   97  103 1   
   103   98  100 1   
   104   98  104 1   
   105   98  105 1   
   106   99  106 1   
   107   99  107 1   
   108   99  108 1   
   109  100  109 1   
   110  100  110 1   
   111  100  111 1   
   112  112  113 1   
   113  112  119 1   
   114  113  114 1   
   115  113  116 1   
   116  113  120 1   
   117  114  115 2   
   118  114  126 1   
   119  116  117 1   
   120  116  118 1   
   121  116  121 1   
   122  117  123 1   
   123  117  124 1   
   124  117  125 1   
   125  118  122 1   
   126  126  127 1   
   127  126  133 1   
   128  127  128 1   
   129  127  130 1   
   130  127  134 1   
   131  128  129 2   
   132  128  140 1   
   133  130  131 1   
   134  130  132 1   
   135  130  135 1   
   136  131  137 1   
   137  131  138 1   
   138  131  139 1   
   139  132  136 1   
   140  140  141 1   
   141  140  149 1   
   142  141  142 1   
   143  141  144 1   
   144  141  150 1   
   145  142  143 2   
   146  142  162 1   
   147  144  145 1   
   148  144  151 1   
   149  144  152 1   
   150  145  146 1   
   151  145  153 1   
   152  145  154 1   
   153  146  147 1   
   154  146  155 1   
   155  146  156 1   
   156  147  148 1   
   157  147  157 1   
   158  147  158 1   
   159  148  159 1   
   160  148  160 1   
   161  148  161 1   
   162  162  163 1   
   163  162  171 1   
   164  163  164 1   
   165  163  166 1   
   166  163  172 1   
   167  164  165 2   
   168  164  177 1   
   169  166  167 1   
   170  166  173 1   
   171  166  174 1   
   172  167  168 1   
   173  167  175 1   
   174  167  176 1   
   175  168  169 1   
   176  168  170 1   
   177  177  178 1   
   178  177  182 1   
   179  178  179 1   
   180  178  180 1   
   181  178  181 1   
   182  184  185 1   
   183  184  186 1   
   184  187  188 1   
   185  187  189 1   
   186  190  191 1   
   187  190  192 1   
@<TRIPOS>SUBSTRUCTURE
     1 MOL         1 TEMP              0 ****  ****    0 ROOT
