@<TRIPOS>MOLECULE
MOL
  192   187     1     0     0
SMALL
resp


@<TRIPOS>ATOM
      1 C1          2.9080    2.6350    2.7430 c3        1 MOL     -0.005320
      2 C2          1.8790    3.0740    1.6420 c         1 MOL      0.510150
      3 O1          1.0320    2.2750    1.2580 o         1 MOL     -0.470929
      4 H1          2.6650    1.6290    3.0860 hc        1 MOL     -0.011580
      5 H2          3.9150    2.6410    2.3240 hc        1 MOL     -0.011580
      6 H3          2.8590    3.3280    3.5830 hc        1 MOL     -0.011580
      7 N1          1.9350    4.3550    1.1890 n         1 MOL     -0.324740
      8 C3          1.2370    4.9290   -0.0490 c3        1 MOL     -0.454327
      9 C4         -0.3220    4.7520    0.0630 c         1 MOL      0.898379
     10 O2         -1.0610    4.7690   -0.8830 o         1 MOL     -0.568566
     11 C5          1.8230    4.2820   -1.2960 c3        1 MOL     -0.085957
     12 C6          3.3470    4.5290   -1.4350 c         1 MOL      0.713203
     13 O3          3.8700    5.6670   -1.5530 o         1 MOL     -0.715810
     14 O4          4.0800    3.5200   -1.5930 o         1 MOL     -0.715810
     15 H4          2.7240    4.8440    1.5890 hn        1 MOL      0.207257
     16 H5          1.4480    5.9850   -0.1560 h1        1 MOL      0.157820
     17 H6          1.2840    4.6820   -2.1570 hc        1 MOL      0.083305
     18 H7          1.5720    3.2170   -1.3040 hc        1 MOL      0.083305
     19 N2         -0.8210    4.7990    1.3250 n         1 MOL     -0.528281
     20 C7         -2.2770    4.7140    1.6930 c3        1 MOL     -0.464715
     21 C8         -3.2660    5.8490    1.1560 c         1 MOL      0.761453
     22 O5         -2.9090    6.9700    0.8850 o         1 MOL     -0.607085
     23 C9         -2.3480    4.6300    3.2020 c3        1 MOL      0.095089
     24 C10        -1.7940    5.9120    3.9170 c3        1 MOL      0.275241
     25 C11        -1.5390    3.3970    3.6790 c3        1 MOL     -0.244374
     26 C12        -2.1160    6.0390    5.3820 c3        1 MOL     -0.259026
     27 H8         -0.1680    5.0370    2.0550 hn        1 MOL      0.284979
     28 H9         -2.5600    3.7290    1.3180 h1        1 MOL      0.261471
     29 H10        -3.4070    4.6630    3.4560 hc        1 MOL      0.061759
     30 H11        -2.1890    6.7750    3.3820 hc        1 MOL     -0.045536
     31 H12        -0.7170    6.0080    3.8020 hc        1 MOL     -0.045536
     32 H13        -0.4980    3.6040    3.4620 hc        1 MOL      0.060827
     33 H14        -1.6340    3.1780    4.7400 hc        1 MOL      0.060827
     34 H15        -1.8030    2.4650    3.1770 hc        1 MOL      0.060827
     35 H16        -1.6960    5.2000    5.9470 hc        1 MOL      0.036741
     36 H17        -1.5900    6.8520    5.8800 hc        1 MOL      0.036741
     37 H18        -3.1980    6.1390    5.4600 hc        1 MOL      0.036741
     38 N3         -4.5030    5.4940    0.9820 n         1 MOL     -0.475386
     39 C13        -5.1470    4.2620    1.2190 c3        1 MOL     -0.242782
     40 C14        -5.9840    3.8320    0.0260 c         1 MOL      0.491401
     41 O6         -6.7840    2.9250    0.1630 o         1 MOL     -0.486357
     42 C15        -6.1730    4.6170    2.3840 c3        1 MOL     -0.007726
     43 C16        -7.2360    5.6640    1.9750 c         1 MOL      0.761961
     44 O7         -7.0730    6.4280    0.9720 o         1 MOL     -0.727867
     45 O8         -8.2390    5.7670    2.6960 o         1 MOL     -0.727867
     46 H19        -5.1050    6.1890    0.5700 hn        1 MOL      0.279382
     47 H20        -4.5150    3.4420    1.5490 h1        1 MOL      0.141391
     48 H21        -5.6250    5.0520    3.2250 hc        1 MOL     -0.009660
     49 H22        -6.7000    3.7630    2.8150 hc        1 MOL     -0.009660
     50 N4         -5.8280    4.4590   -1.1910 n         1 MOL     -0.179604
     51 C17        -6.5330    4.2070   -2.4040 c3        1 MOL     -0.312568
     52 C18        -6.4880    2.7840   -2.9320 c         1 MOL      0.504944
     53 O9         -7.4510    2.3690   -3.4980 o         1 MOL     -0.537554
     54 H23        -5.2370    5.2660   -1.1590 hn        1 MOL      0.229951
     55 H24        -5.9710    4.7160   -3.1790 h1        1 MOL      0.132155
     56 H25        -7.5080    4.6840   -2.2550 h1        1 MOL      0.132155
     57 N5         -5.4080    2.0400   -2.7020 n         1 MOL     -0.234023
     58 C19        -5.2720    0.7620   -3.3420 c3        1 MOL     -0.090384
     59 C20        -6.2330   -0.2690   -2.7810 c         1 MOL      0.630883
     60 O10        -6.8380   -0.9680   -3.6030 o         1 MOL     -0.611327
     61 C21        -3.7930    0.3600   -3.4650 c3        1 MOL     -0.078165
     62 C22        -3.1410   -0.2700   -2.2550 c         1 MOL      0.697987
     63 O11        -2.1920    0.2620   -1.6200 o         1 MOL     -0.691477
     64 O12        -3.6640   -1.3250   -1.8420 o         1 MOL     -0.691477
     65 H26        -4.6060    2.4650   -2.2750 hn        1 MOL      0.169450
     66 H27        -5.7100    0.9350   -4.3210 h1        1 MOL      0.073892
     67 H28        -3.1510    1.1540   -3.8600 hc        1 MOL      0.010662
     68 H29        -3.7090   -0.3390   -4.2910 hc        1 MOL      0.010662
     69 N6         -6.3900   -0.2760   -1.4390 n         1 MOL     -0.243562
     70 C23        -7.3370   -1.1420   -0.6740 c3        1 MOL     -0.325252
     71 C24        -6.7910   -2.5280   -0.4200 c         1 MOL      0.616919
     72 O13        -7.4910   -3.2160    0.3380 o         1 MOL     -0.607835
     73 H30        -5.8650    0.3950   -0.8930 hn        1 MOL      0.242405
     74 H31        -8.2770   -1.2640   -1.2120 h1        1 MOL      0.133455
     75 H32        -7.5580   -0.6460    0.2850 h1        1 MOL      0.133455
     76 N7         -5.6870   -2.9150   -1.0910 n         1 MOL     -0.073889
     77 C25        -5.1160   -4.3180   -1.0510 c3        1 MOL      0.112848
     78 C26        -4.9210   -5.0080    0.3630 c         1 MOL      0.500095
     79 O14        -5.0300   -6.2220    0.5250 o         1 MOL     -0.523741
     80 C27        -5.7980   -5.2120   -2.1450 c3        1 MOL      0.093416
     81 C28        -6.1440   -4.4850   -3.4540 c3        1 MOL     -0.196790
     82 C29        -6.4290   -5.4710   -4.5950 c         1 MOL      0.706803
     83 N8         -7.2230   -6.4880   -4.4940 n         1 MOL     -0.808747
     84 O15        -5.9800   -5.2080   -5.7220 o         1 MOL     -0.610371
     85 H33        -5.1030   -2.3010   -1.6410 hn        1 MOL      0.054937
     86 H34        -4.1030   -4.2590   -1.4550 h1        1 MOL      0.090361
     87 H35        -6.7190   -5.4570   -1.6110 hc        1 MOL     -0.063925
     88 H36        -5.1070   -6.0490   -2.2990 hc        1 MOL     -0.063925
     89 H37        -5.3120   -3.8500   -3.7450 hc        1 MOL      0.068421
     90 H38        -7.0860   -3.9850   -3.2540 hc        1 MOL      0.068421
     91 H39        -7.6100   -6.6310   -3.5720 hn        1 MOL      0.356509
     92 H40        -7.4530   -7.0360   -5.3100 hn        1 MOL      0.356509
     93 N9         -4.6020   -4.1470    1.3550 n         1 MOL     -0.515141
     94 C30        -4.2230   -4.6340    2.7430 c3        1 MOL     -0.006204
     95 C31        -2.7440   -4.4600    3.1620 c         1 MOL      0.580973
     96 O16        -2.2520   -5.1280    4.0870 o         1 MOL     -0.598090
     97 C32        -5.2190   -4.0420    3.7800 c3        1 MOL      0.230942
     98 C33        -5.0130   -2.5520    4.0090 c3        1 MOL     -0.329479
     99 C34        -6.6430   -4.4490    3.5280 c3        1 MOL     -0.329479
    100 H41        -4.5330   -3.1770    1.1030 hn        1 MOL      0.238604
    101 H42        -4.3260   -5.7180    2.7700 h1        1 MOL      0.091575
    102 H43        -4.9730   -4.4300    4.7680 hc        1 MOL     -0.029568
    103 H44        -3.9640   -2.3770    4.2520 hc        1 MOL      0.080460
    104 H45        -5.3230   -1.9170    3.1730 hc        1 MOL      0.080460
    105 H46        -5.5430   -2.1590    4.8860 hc        1 MOL      0.080460
    106 H47        -7.3560   -4.2660    4.3380 hc        1 MOL      0.080460
    107 H48        -7.1050   -4.0310    2.6440 hc        1 MOL      0.080460
    108 H49        -6.5690   -5.4990    3.2440 hc        1 MOL      0.080460
    109 N10        -2.0860   -3.5380    2.4860 n         1 MOL     -0.431556
    110 C35        -0.6950   -3.1570    2.7360 c3        1 MOL      0.297017
    111 C36         0.0270   -2.9330    1.4100 c         1 MOL      0.567532
    112 O17        -0.5300   -3.3280    0.3300 o         1 MOL     -0.586978
    113 C37        -0.7420   -1.9110    3.6720 c3        1 MOL     -0.391870
    114 C38         0.4800   -1.5970    4.5020 c         1 MOL      0.628994
    115 N11         0.5440   -1.6220    5.8220 n         1 MOL     -0.740198
    116 O18         1.5670   -1.3090    3.9470 o         1 MOL     -0.556958
    117 H50        -2.4960   -3.0990    1.6680 hn        1 MOL      0.265939
    118 H51        -0.2240   -4.0430    3.1710 h1        1 MOL      0.038887
    119 H52        -1.5100   -2.1380    4.4040 hc        1 MOL      0.127051
    120 H53        -1.1620   -1.0720    3.1070 hc        1 MOL      0.127051
    121 H54        -0.2810   -1.5900    6.4040 hn        1 MOL      0.357128
    122 H55         1.4920   -1.4720    6.1580 hn        1 MOL      0.357128
    123 N12         1.2480   -2.5420    1.5250 n         1 MOL     -0.658089
    124 C39         2.1800   -2.8690    0.3710 c3        1 MOL      0.381447
    125 C40         3.6080   -3.1530    0.8210 c         1 MOL      0.380342
    126 O19         3.9650   -2.7120    1.9690 o         1 MOL     -0.547152
    127 C41         2.2200   -1.7020   -0.6330 c3        1 MOL     -0.353596
    128 C42         2.6430   -2.0060   -2.1180 ca        1 MOL      0.045887
    129 C43         3.9660   -1.8940   -2.5630 ca        1 MOL     -0.158965
    130 C44         1.6530   -2.4070   -2.8920 ca        1 MOL     -0.158965
    131 C45         4.2930   -2.4470   -3.8480 ca        1 MOL     -0.160245
    132 C46         1.9350   -2.8790   -4.1560 ca        1 MOL     -0.160245
    133 C47         3.2660   -3.0310   -4.6100 ca        1 MOL      0.225548
    134 O20         3.5130   -3.5150   -5.8790 oh        1 MOL     -0.541094
    135 H56         1.6700   -2.1770    2.3780 hn        1 MOL      0.365675
    136 H57         1.7820   -3.7430   -0.1360 h1        1 MOL      0.023554
    137 H58         2.8360   -0.9080   -0.2260 hc        1 MOL      0.180249
    138 H59         1.2020   -1.2990   -0.6280 hc        1 MOL      0.180249
    139 H60         4.7330   -1.5580   -1.8710 ha        1 MOL      0.161424
    140 H61         0.6640   -2.5210   -2.4850 ha        1 MOL      0.161424
    141 H62         5.3290   -2.4940   -4.1520 ha        1 MOL      0.121171
    142 H63         1.0670   -3.1860   -4.7070 ha        1 MOL      0.121171
    143 H64         4.4080   -3.7170   -6.1570 ho        1 MOL      0.389984
    144 N13         4.4820   -3.8100   -0.0000 n         1 MOL     -0.574369
    145 C48         5.8630   -3.9880    0.2970 c3        1 MOL      0.421562
    146 C49         6.8250   -3.1360   -0.5350 c         1 MOL      0.324995
    147 O21         7.2710   -3.5250   -1.5760 o         1 MOL     -0.569094
    148 C50         6.2080   -5.4480    0.1970 c3        1 MOL      0.057628
    149 C51         5.4970   -6.4530    1.0720 c3        1 MOL     -0.185746
    150 C52         5.9830   -7.9060    0.7480 c         1 MOL      0.692719
    151 O22         5.7930   -8.7750    1.5930 o         1 MOL     -0.693198
    152 O23         6.6320   -8.2060   -0.3510 o         1 MOL     -0.693198
    153 H65         4.1140   -4.1990   -0.8540 hn        1 MOL      0.311421
    154 H66         6.0760   -3.7470    1.3410 h1        1 MOL     -0.013064
    155 H67         7.2610   -5.5560    0.4450 hc        1 MOL     -0.017378
    156 H68         6.0110   -5.7440   -0.8380 hc        1 MOL     -0.017378
    157 H69         4.4140   -6.3870    0.9770 hc        1 MOL      0.024112
    158 H70         5.7750   -6.2260    2.0910 hc        1 MOL      0.024112
    159 N14         7.3830   -2.0350   -0.1310 n         1 MOL     -0.345202
    160 C53         6.9660   -1.2510    1.0270 c3        1 MOL     -0.087542
    161 C54         7.6530   -1.7350    2.3170 c         1 MOL      0.602249
    162 O24         8.8110   -2.1170    2.2110 o         1 MOL     -0.561162
    163 C55         7.1710    0.2290    0.7400 c3        1 MOL     -0.177721
    164 C56         6.2680    0.7390   -0.3970 c3        1 MOL      0.339339
    165 C57         6.7040    2.1240   -0.9520 c         1 MOL      0.424777
    166 O25         7.0470    3.0000   -0.1260 o         1 MOL     -0.662931
    167 O26         6.7470    2.4010   -2.1810 o         1 MOL     -0.662931
    168 H71         7.9030   -1.5120   -0.8270 hn        1 MOL      0.323134
    169 H72         5.8920   -1.3200    1.1960 h1        1 MOL      0.121066
    170 H73         8.2220    0.4780    0.5710 hc        1 MOL      0.011570
    171 H74         6.8600    0.7540    1.6430 hc        1 MOL      0.011570
    172 H75         5.2630    0.7370    0.0270 hc        1 MOL     -0.079559
    173 H76         6.2200    0.0260   -1.2240 hc        1 MOL     -0.079559
    174 N15         6.9110   -1.6530    3.4300 n         1 MOL     -0.359780
    175 C58         7.1500   -2.1710    4.7450 c3        1 MOL     -0.128922
    176 H77         8.2210   -2.3090    4.8920 h1        1 MOL      0.074444
    177 H78         6.7690   -1.4690    5.4870 h1        1 MOL      0.074444
    178 H79         6.6420   -3.1290    4.8570 h1        1 MOL      0.074444
    179 H80         5.9880   -1.2680    3.2790 hn        1 MOL      0.297886
    180 Ca1         6.4600    4.9790   -1.7680 Ca        1 MOL      1.641858
    181 O27         8.5440    4.9230   -3.4540 oh        1 MOL     -0.816945
    182 H81         9.2640    5.5420   -3.6030 ho        1 MOL      0.395310
    183 H82         8.7460    4.1800   -4.0160 ho        1 MOL      0.395310
    184 O28         6.4210    7.7200   -2.2960 oh        1 MOL     -0.816945
    185 H83         7.1530    8.3130   -2.4670 ho        1 MOL      0.395310
    186 H84         5.6950    8.2970   -2.0530 ho        1 MOL      0.395310
    187 O29         5.5850    4.8390   -4.2220 oh        1 MOL     -0.816945
    188 H85         5.0820    4.1800   -4.6940 ho        1 MOL      0.395310
    189 H86         5.8300    5.4840   -4.8940 ho        1 MOL      0.395310
    190 O30         8.7030    5.8270   -0.8050 oh        1 MOL     -0.816945
    191 H87         9.0630    5.3320   -0.0780 ho        1 MOL      0.395310
    192 H88         9.4680    6.1660   -1.2720 ho        1 MOL      0.395310
@<TRIPOS>BOND
     1    1    2 1   
     2    1    4 1   
     3    1    5 1   
     4    1    6 1   
     5    2    3 2   
     6    2    7 1   
     7    7    8 1   
     8    7   15 1   
     9    8    9 1   
    10    8   11 1   
    11    8   16 1   
    12    9   10 2   
    13    9   19 1   
    14   11   12 1   
    15   11   17 1   
    16   11   18 1   
    17   12   13 1   
    18   12   14 1   
    19   19   20 1   
    20   19   27 1   
    21   20   21 1   
    22   20   23 1   
    23   20   28 1   
    24   21   22 2   
    25   21   38 1   
    26   23   24 1   
    27   23   25 1   
    28   23   29 1   
    29   24   26 1   
    30   24   30 1   
    31   24   31 1   
    32   25   32 1   
    33   25   33 1   
    34   25   34 1   
    35   26   35 1   
    36   26   36 1   
    37   26   37 1   
    38   38   39 1   
    39   38   46 1   
    40   39   40 1   
    41   39   42 1   
    42   39   47 1   
    43   40   41 2   
    44   40   50 1   
    45   42   43 1   
    46   42   48 1   
    47   42   49 1   
    48   43   44 1   
    49   43   45 1   
    50   50   51 1   
    51   50   54 1   
    52   51   52 1   
    53   51   55 1   
    54   51   56 1   
    55   52   53 2   
    56   52   57 1   
    57   57   58 1   
    58   57   65 1   
    59   58   59 1   
    60   58   61 1   
    61   58   66 1   
    62   59   60 2   
    63   59   69 1   
    64   61   62 1   
    65   61   67 1   
    66   61   68 1   
    67   62   63 1   
    68   62   64 1   
    69   69   70 1   
    70   69   73 1   
    71   70   71 1   
    72   70   74 1   
    73   70   75 1   
    74   71   72 2   
    75   71   76 1   
    76   76   77 1   
    77   76   85 1   
    78   77   78 1   
    79   77   80 1   
    80   77   86 1   
    81   78   79 2   
    82   78   93 1   
    83   80   81 1   
    84   80   87 1   
    85   80   88 1   
    86   81   82 1   
    87   81   89 1   
    88   81   90 1   
    89   82   83 1   
    90   82   84 2   
    91   83   91 1   
    92   83   92 1   
    93   93   94 1   
    94   93  100 1   
    95   94   95 1   
    96   94   97 1   
    97   94  101 1   
    98   95   96 2   
    99   95  109 1   
   100   97   98 1   
   101   97   99 1   
   102   97  102 1   
   103   98  103 1   
   104   98  104 1   
   105   98  105 1   
   106   99  106 1   
   107   99  107 1   
   108   99  108 1   
   109  109  110 1   
   110  109  117 1   
   111  110  111 1   
   112  110  113 1   
   113  110  118 1   
   114  111  112 2   
   115  111  123 1   
   116  113  114 1   
   117  113  119 1   
   118  113  120 1   
   119  114  115 1   
   120  114  116 2   
   121  115  121 1   
   122  115  122 1   
   123  123  124 1   
   124  123  135 1   
   125  124  125 1   
   126  124  127 1   
   127  124  136 1   
   128  125  126 2   
   129  125  144 1   
   130  127  128 1   
   131  127  137 1   
   132  127  138 1   
   133  128  129 ar  
   134  128  130 ar  
   135  129  131 ar  
   136  129  139 1   
   137  130  132 ar  
   138  130  140 1   
   139  131  133 ar  
   140  131  141 1   
   141  132  133 ar  
   142  132  142 1   
   143  133  134 1   
   144  134  143 1   
   145  144  145 1   
   146  144  153 1   
   147  145  146 1   
   148  145  148 1   
   149  145  154 1   
   150  146  147 2   
   151  146  159 1   
   152  148  149 1   
   153  148  155 1   
   154  148  156 1   
   155  149  150 1   
   156  149  157 1   
   157  149  158 1   
   158  150  151 1   
   159  150  152 1   
   160  159  160 1   
   161  159  168 1   
   162  160  161 1   
   163  160  163 1   
   164  160  169 1   
   165  161  162 2   
   166  161  174 1   
   167  163  164 1   
   168  163  170 1   
   169  163  171 1   
   170  164  165 1   
   171  164  172 1   
   172  164  173 1   
   173  165  166 1   
   174  165  167 1   
   175  174  175 1   
   176  174  179 1   
   177  175  176 1   
   178  175  177 1   
   179  175  178 1   
   180  181  182 1   
   181  181  183 1   
   182  184  185 1   
   183  184  186 1   
   184  187  188 1   
   185  187  189 1   
   186  190  191 1   
   187  190  192 1   
@<TRIPOS>SUBSTRUCTURE
     1 MOL         1 TEMP              0 ****  ****    0 ROOT
