@<TRIPOS>MOLECULE
MOL
  192   187     1     0     0
SMALL
resp


@<TRIPOS>ATOM
      1 C1        -11.9750   -5.9530   -2.5750 c3        1 MOL     -0.209802
      2 C2        -11.8820   -4.6720   -1.7270 c         1 MOL      0.437977
      3 O1        -12.9700   -4.0530   -1.4880 o         1 MOL     -0.545006
      4 H1        -12.2910   -5.6960   -3.5860 hc        1 MOL      0.066593
      5 H2        -10.9980   -6.4360   -2.6120 hc        1 MOL      0.066593
      6 H3        -12.7010   -6.6330   -2.1290 hc        1 MOL      0.066593
      7 N1        -10.7340   -4.4740   -1.1360 n         1 MOL     -0.041745
      8 C3        -10.4230   -3.5530   -0.0110 c3        1 MOL     -0.344979
      9 C4         -9.1400   -2.7790   -0.3650 c         1 MOL      0.506108
     10 O2         -8.2000   -3.3800   -0.8360 o         1 MOL     -0.678586
     11 C5        -10.2050   -4.4220    1.2300 c3        1 MOL      0.290056
     12 C6         -9.5290   -5.7040    0.9390 c         1 MOL      0.527258
     13 O3         -8.2610   -5.6680    0.7750 o         1 MOL     -0.670055
     14 O4        -10.2040   -6.7560    0.9190 o         1 MOL     -0.670055
     15 H4         -9.9170   -4.9830   -1.4260 hn        1 MOL      0.122987
     16 H5        -11.2810   -2.9080    0.1600 h1        1 MOL      0.117471
     17 H6        -11.1450   -4.6290    1.7460 hc        1 MOL     -0.019394
     18 H7         -9.5910   -3.8310    1.9060 hc        1 MOL     -0.019394
     19 N2         -9.0470   -1.4840   -0.1090 n         1 MOL     -0.276932
     20 C7         -7.8240   -0.7390   -0.4470 c3        1 MOL      0.039783
     21 C8         -6.9520   -0.4740    0.7510 c         1 MOL      0.629249
     22 O5         -7.4400   -0.2170    1.8090 o         1 MOL     -0.515102
     23 C9         -8.1770    0.5660   -1.2460 c3        1 MOL     -0.671025
     24 C10        -7.0220    1.4350   -1.6120 c3        1 MOL      0.140965
     25 C11        -7.4160    2.3780   -2.6770 c3        1 MOL     -0.194557
     26 C12        -6.1360    3.0300   -3.2110 c3        1 MOL      0.090938
     27 N3         -6.5290    3.9260   -4.3520 n4        1 MOL     -0.343090
     28 H8         -9.6610   -0.9580    0.4880 hn        1 MOL      0.280719
     29 H9         -7.1590   -1.2870   -1.1150 h1        1 MOL      0.099396
     30 H10        -8.7580    1.1350   -0.5200 hc        1 MOL      0.206831
     31 H11        -8.8430    0.3360   -2.0660 hc        1 MOL      0.206831
     32 H12        -6.1180    0.8650   -1.8180 hc        1 MOL      0.077513
     33 H13        -6.7180    2.0560   -0.7730 hc        1 MOL      0.077513
     34 H14        -8.0440    3.1590   -2.2580 hc        1 MOL      0.073553
     35 H15        -7.8340    1.9160   -3.5720 hc        1 MOL      0.073553
     36 H16        -5.4710    2.2640   -3.5980 hx        1 MOL      0.097893
     37 H17        -5.6260    3.6160   -2.4540 hx        1 MOL      0.097893
     38 H18        -7.2920    4.4700   -3.9720 hn        1 MOL      0.285590
     39 H19        -5.7660    4.5860   -4.4390 hn        1 MOL      0.285590
     40 H20        -6.8830    3.4790   -5.1830 hn        1 MOL      0.285590
     41 N4         -5.6350   -0.6030    0.5640 n         1 MOL     -0.599172
     42 C13        -4.5750   -0.4470    1.5110 c3        1 MOL      0.110231
     43 C14        -3.2890   -0.1410    0.7090 c         1 MOL      0.538625
     44 O6         -3.0530   -0.7820   -0.3030 o         1 MOL     -0.584404
     45 C15        -4.4150   -1.5750    2.5290 c3        1 MOL     -0.375699
     46 C16        -4.3610   -2.8740    1.7840 c         1 MOL      0.897982
     47 O7         -3.2740   -3.4130    1.7410 o         1 MOL     -0.750018
     48 O8         -5.4420   -3.4610    1.4400 o         1 MOL     -0.750018
     49 H21        -5.4640   -1.0350   -0.3360 hn        1 MOL      0.253716
     50 H22        -4.7790    0.4150    2.1380 h1        1 MOL      0.104914
     51 H23        -5.2500   -1.5850    3.2260 hc        1 MOL      0.119275
     52 H24        -3.4800   -1.4690    3.0940 hc        1 MOL      0.119275
     53 N5         -2.4420    0.7810    1.1750 n         1 MOL     -0.394349
     54 C17        -2.5980    1.6430    2.3780 c3        1 MOL     -0.069225
     55 C18        -3.4770    2.8580    2.1430 c         1 MOL      0.570099
     56 O9         -3.9190    3.1570    0.9890 o         1 MOL     -0.592991
     57 H25        -1.6060    0.9080    0.6080 hn        1 MOL      0.336396
     58 H26        -1.5980    2.0150    2.5950 h1        1 MOL      0.080378
     59 H27        -3.0300    1.1330    3.2430 h1        1 MOL      0.080378
     60 N6         -3.7020    3.6330    3.2060 n         1 MOL     -0.410634
     61 C19        -4.1650    5.0480    3.0020 c3        1 MOL     -0.010443
     62 C20        -2.9640    5.8320    2.4600 c         1 MOL      0.425445
     63 O10        -1.8190    5.6650    2.8620 o         1 MOL     -0.486259
     64 C21        -4.6590    5.5760    4.2890 c3        1 MOL     -0.049202
     65 C22        -5.0040    7.0100    4.1190 c         1 MOL      0.635119
     66 O11        -4.2340    7.8550    4.7080 o         1 MOL     -0.659938
     67 O12        -6.0400    7.3120    3.5240 o         1 MOL     -0.659938
     68 H28        -3.5500    3.2970    4.1510 hn        1 MOL      0.290322
     69 H29        -4.9580    5.0250    2.2510 h1        1 MOL      0.063212
     70 H30        -3.9250    5.4890    5.0960 hc        1 MOL      0.022598
     71 H31        -5.5300    4.9810    4.5670 hc        1 MOL      0.022598
     72 N7         -3.1810    6.7210    1.4470 n         1 MOL     -0.177849
     73 C23        -2.1130    7.4070    0.7520 c3        1 MOL     -0.284419
     74 C24        -1.2850    6.5950   -0.3060 c         1 MOL      0.594791
     75 O13        -0.3700    7.2020   -0.8580 o         1 MOL     -0.565719
     76 H32        -4.1410    6.7760    1.1360 hn        1 MOL      0.212194
     77 H33        -1.4630    7.7870    1.5340 h1        1 MOL      0.144339
     78 H34        -2.6020    8.1800    0.1540 h1        1 MOL      0.144339
     79 N8         -1.4550    5.2600   -0.4900 n         1 MOL     -0.382090
     80 C25        -0.7600    4.4650   -1.4640 c3        1 MOL      0.163732
     81 C26        -0.0660    3.2270   -0.7930 c         1 MOL      0.496146
     82 O14        -0.1180    3.0350    0.3920 o         1 MOL     -0.452241
     83 C27        -1.6790    4.1300   -2.5640 c3        1 MOL      0.148608
     84 C28        -2.7080    3.0820   -2.1830 c3        1 MOL     -0.032782
     85 O15        -2.3890    5.1730   -3.1070 oh        1 MOL     -0.584241
     86 H35        -2.2800    4.8500   -0.0730 hn        1 MOL      0.235264
     87 H36         0.0490    4.9770   -1.9810 h1        1 MOL      0.035316
     88 H37        -0.9940    3.8090   -3.3620 h1        1 MOL     -0.002019
     89 H38        -1.6960    5.6410   -3.5850 ho        1 MOL      0.391926
     90 H39        -3.3740    2.9230   -3.0280 hc        1 MOL     -0.016961
     91 H40        -2.2910    2.0900   -2.0320 hc        1 MOL     -0.016961
     92 H41        -3.4300    3.3360   -1.4010 hc        1 MOL     -0.016961
     93 N9          0.6340    2.4280   -1.5740 n         1 MOL     -0.589572
     94 C29         1.1710    1.1600   -1.0330 c3        1 MOL      0.112759
     95 C30         2.5310    1.3670   -0.2690 c         1 MOL      0.503937
     96 O16         2.7320    0.7830    0.8000 o         1 MOL     -0.493255
     97 C31         1.3080    0.1590   -2.1890 c3        1 MOL     -0.035524
     98 C32         0.0580    0.0920   -3.0970 c3        1 MOL      0.146028
     99 C33         1.5190   -1.2470   -1.6640 c3        1 MOL     -0.275843
    100 C34         0.1670   -0.9980   -4.2020 c3        1 MOL     -0.097620
    101 H42         0.7340    2.6410   -2.5560 hn        1 MOL      0.303716
    102 H43         0.5230    0.6860   -0.3010 h1        1 MOL      0.049853
    103 H44         2.2110    0.3380   -2.7720 hc        1 MOL      0.049358
    104 H45        -0.1330    1.0170   -3.6470 hc        1 MOL     -0.036452
    105 H46        -0.8180   -0.2280   -2.5400 hc        1 MOL     -0.036452
    106 H47         0.6830   -1.6130   -1.0580 hc        1 MOL      0.087769
    107 H48         1.6640   -2.0690   -2.3500 hc        1 MOL      0.087769
    108 H49         2.3000   -1.1430   -0.9040 hc        1 MOL      0.087769
    109 H50         0.0850   -2.0160   -3.8290 hc        1 MOL      0.017956
    110 H51        -0.5980   -0.8550   -4.9650 hc        1 MOL      0.017956
    111 H52         1.1220   -0.7960   -4.7010 hc        1 MOL      0.017956
    112 N10         3.3900    2.1830   -0.8720 n         1 MOL     -0.398952
    113 C35         4.7620    2.4180   -0.3220 c3        1 MOL     -0.053552
    114 C36         5.8190    2.4060   -1.3770 c         1 MOL      0.608745
    115 O17         5.5000    2.6420   -2.5000 o         1 MOL     -0.515011
    116 C37         4.9470    3.6440    0.5250 c3        1 MOL      0.406543
    117 C38         3.9080    3.7360    1.5930 c3        1 MOL     -0.342674
    118 O18         6.1840    3.7760    1.1220 oh        1 MOL     -0.634904
    119 H53         3.2450    2.3920   -1.8460 hn        1 MOL      0.248791
    120 H54         4.9030    1.6180    0.4090 h1        1 MOL      0.074365
    121 H55         4.7280    4.4300   -0.1920 h1        1 MOL     -0.030296
    122 H56         6.7700    4.4270    0.7310 ho        1 MOL      0.416998
    123 H57         4.1370    3.1230    2.4670 hc        1 MOL      0.109262
    124 H58         3.8970    4.7270    2.0290 hc        1 MOL      0.109262
    125 H59         2.8980    3.4680    1.2700 hc        1 MOL      0.109262
    126 N11         7.0140    1.8810   -1.0380 n         1 MOL     -0.552314
    127 C39         8.1910    1.8480   -1.9440 c3        1 MOL     -0.092273
    128 C40         9.1620    0.7420   -1.6460 c         1 MOL      0.648039
    129 O19        10.0860    0.5740   -2.4170 o         1 MOL     -0.587125
    130 C41         8.9580    3.2630   -1.9580 c3        1 MOL      0.313657
    131 C42         9.6180    3.4690   -0.5260 c3        1 MOL     -0.137498
    132 O20         8.1830    4.3810   -2.2410 oh        1 MOL     -0.602917
    133 H60         7.1240    1.5210   -0.1040 hn        1 MOL      0.330976
    134 H61         7.8120    1.7780   -2.9590 h1        1 MOL      0.108356
    135 H62         9.7530    3.1840   -2.6980 h1        1 MOL      0.002477
    136 H63         8.0960    4.5170   -3.1840 ho        1 MOL      0.414145
    137 H64        10.4800    2.7910   -0.4810 hc        1 MOL      0.042081
    138 H65        10.0340    4.4740   -0.4470 hc        1 MOL      0.042081
    139 H66         8.9240    3.2710    0.2810 hc        1 MOL      0.042081
    140 N12         9.0510    0.0330   -0.4930 n         1 MOL     -0.498013
    141 C43         9.9080   -1.0840   -0.1290 c3        1 MOL     -0.056004
    142 C44         9.2590   -1.9080    0.9540 c         1 MOL      0.626645
    143 O21         9.0210   -1.5010    2.0840 o         1 MOL     -0.498079
    144 C45        11.2290   -0.5170    0.4280 c3        1 MOL     -0.351207
    145 C46        12.2630   -1.5480    0.7580 c3        1 MOL     -0.023830
    146 C47        12.8100   -2.1810   -0.4820 c3        1 MOL     -0.020405
    147 C48        13.3890   -1.1840   -1.5040 c3        1 MOL     -0.031187
    148 N13        14.5560   -0.4120   -1.0510 n4        1 MOL     -0.162819
    149 H67         8.1690    0.1160   -0.0120 hn        1 MOL      0.256133
    150 H68        10.0610   -1.6890   -1.0240 h1        1 MOL      0.111660
    151 H69        11.0030   -0.0460    1.3850 hc        1 MOL      0.136196
    152 H70        11.6460    0.2480   -0.2230 hc        1 MOL      0.136196
    153 H71        11.7910   -2.3130    1.3600 hc        1 MOL      0.049206
    154 H72        13.1160   -1.0540    1.2300 hc        1 MOL      0.049206
    155 H73        11.9380   -2.6680   -0.9290 hc        1 MOL      0.025040
    156 H74        13.4960   -3.0070   -0.2660 hc        1 MOL      0.025040
    157 H75        12.5920   -0.4650   -1.6780 hx        1 MOL      0.098139
    158 H76        13.6240   -1.5810   -2.4910 hx        1 MOL      0.098139
    159 H77        14.6540   -0.3290   -0.0470 hn        1 MOL      0.236443
    160 H78        15.4130   -0.7900   -1.4280 hn        1 MOL      0.236443
    161 H79        14.6930    0.5330   -1.3650 hn        1 MOL      0.236443
    162 N14         9.0660   -3.1770    0.6360 n         1 MOL     -0.438709
    163 C49         8.3260   -4.0570    1.5330 c3        1 MOL      0.173482
    164 C50         6.8280   -3.8880    1.5190 c         1 MOL      0.370885
    165 O22         6.1730   -3.7570    2.5790 o         1 MOL     -0.495371
    166 C51         8.7860   -5.5190    1.3120 c3        1 MOL      0.059516
    167 C52        10.0770   -5.7570    2.0680 c3        1 MOL     -0.382520
    168 C53        10.6770   -7.1970    1.9400 c         1 MOL      0.711961
    169 O23        11.1040   -7.6030    0.8610 o         1 MOL     -0.663765
    170 O24        10.7060   -7.9120    2.9890 o         1 MOL     -0.663765
    171 H80         9.2280   -3.6020   -0.2740 hn        1 MOL      0.309693
    172 H81         8.6030   -3.6950    2.5310 h1        1 MOL      0.058359
    173 H82         8.9020   -5.7390    0.2530 hc        1 MOL      0.033605
    174 H83         8.0730   -6.2290    1.7420 hc        1 MOL      0.033605
    175 H84         9.8000   -5.5910    3.1120 hc        1 MOL      0.087530
    176 H85        10.8450   -5.0290    1.7720 hc        1 MOL      0.087530
    177 N15         6.1100   -3.8150    0.3660 n         1 MOL     -0.432161
    178 C54         6.5500   -4.2280   -0.9820 c3        1 MOL      0.081505
    179 H86         5.8460   -3.8520   -1.7250 h1        1 MOL      0.006763
    180 H87         7.5410   -3.8200   -1.1820 h1        1 MOL      0.006763
    181 H88         6.5870   -5.3160   -1.0360 h1        1 MOL      0.006763
    182 H89         5.1340   -3.5670    0.4070 hn        1 MOL      0.315435
    183 Ca1        -6.1660   -4.9950   -0.5860 Ca        1 MOL      1.768219
    184 O25        -4.9470   -6.7080    0.9080 oh        1 MOL     -0.932710
    185 H90        -3.9930   -6.7210    0.9880 ho        1 MOL      0.453619
    186 H91        -5.2610   -7.0670    1.7370 ho        1 MOL      0.453619
    187 O26        -3.2080   -4.6110   -0.7030 oh        1 MOL     -0.932710
    188 H92        -3.0850   -4.1140    0.1070 ho        1 MOL      0.453619
    189 H93        -2.4860   -4.3410   -1.2680 ho        1 MOL      0.453619
    190 O27        -5.2800   -2.8310   -1.8130 oh        1 MOL     -0.932710
    191 H94        -4.3580   -2.5970   -1.9330 ho        1 MOL      0.453619
    192 H95        -5.7230   -2.4800   -2.5920 ho        1 MOL      0.453619
@<TRIPOS>BOND
     1    1    2 1   
     2    1    4 1   
     3    1    5 1   
     4    1    6 1   
     5    2    3 2   
     6    2    7 1   
     7    7    8 1   
     8    7   15 1   
     9    8    9 1   
    10    8   11 1   
    11    8   16 1   
    12    9   10 2   
    13    9   19 1   
    14   11   12 1   
    15   11   17 1   
    16   11   18 1   
    17   12   13 1   
    18   12   14 1   
    19   19   20 1   
    20   19   28 1   
    21   20   21 1   
    22   20   23 1   
    23   20   29 1   
    24   21   22 2   
    25   21   41 1   
    26   23   24 1   
    27   23   30 1   
    28   23   31 1   
    29   24   25 1   
    30   24   32 1   
    31   24   33 1   
    32   25   26 1   
    33   25   34 1   
    34   25   35 1   
    35   26   27 1   
    36   26   36 1   
    37   26   37 1   
    38   27   38 1   
    39   27   39 1   
    40   27   40 1   
    41   41   42 1   
    42   41   49 1   
    43   42   43 1   
    44   42   45 1   
    45   42   50 1   
    46   43   44 2   
    47   43   53 1   
    48   45   46 1   
    49   45   51 1   
    50   45   52 1   
    51   46   47 1   
    52   46   48 1   
    53   53   54 1   
    54   53   57 1   
    55   54   55 1   
    56   54   58 1   
    57   54   59 1   
    58   55   56 2   
    59   55   60 1   
    60   60   61 1   
    61   60   68 1   
    62   61   62 1   
    63   61   64 1   
    64   61   69 1   
    65   62   63 2   
    66   62   72 1   
    67   64   65 1   
    68   64   70 1   
    69   64   71 1   
    70   65   66 1   
    71   65   67 1   
    72   72   73 1   
    73   72   76 1   
    74   73   74 1   
    75   73   77 1   
    76   73   78 1   
    77   74   75 2   
    78   74   79 1   
    79   79   80 1   
    80   79   86 1   
    81   80   81 1   
    82   80   83 1   
    83   80   87 1   
    84   81   82 2   
    85   81   93 1   
    86   83   84 1   
    87   83   85 1   
    88   83   88 1   
    89   84   90 1   
    90   84   91 1   
    91   84   92 1   
    92   85   89 1   
    93   93   94 1   
    94   93  101 1   
    95   94   95 1   
    96   94   97 1   
    97   94  102 1   
    98   95   96 2   
    99   95  112 1   
   100   97   98 1   
   101   97   99 1   
   102   97  103 1   
   103   98  100 1   
   104   98  104 1   
   105   98  105 1   
   106   99  106 1   
   107   99  107 1   
   108   99  108 1   
   109  100  109 1   
   110  100  110 1   
   111  100  111 1   
   112  112  113 1   
   113  112  119 1   
   114  113  114 1   
   115  113  116 1   
   116  113  120 1   
   117  114  115 2   
   118  114  126 1   
   119  116  117 1   
   120  116  118 1   
   121  116  121 1   
   122  117  123 1   
   123  117  124 1   
   124  117  125 1   
   125  118  122 1   
   126  126  127 1   
   127  126  133 1   
   128  127  128 1   
   129  127  130 1   
   130  127  134 1   
   131  128  129 2   
   132  128  140 1   
   133  130  131 1   
   134  130  132 1   
   135  130  135 1   
   136  131  137 1   
   137  131  138 1   
   138  131  139 1   
   139  132  136 1   
   140  140  141 1   
   141  140  149 1   
   142  141  142 1   
   143  141  144 1   
   144  141  150 1   
   145  142  143 2   
   146  142  162 1   
   147  144  145 1   
   148  144  151 1   
   149  144  152 1   
   150  145  146 1   
   151  145  153 1   
   152  145  154 1   
   153  146  147 1   
   154  146  155 1   
   155  146  156 1   
   156  147  148 1   
   157  147  157 1   
   158  147  158 1   
   159  148  159 1   
   160  148  160 1   
   161  148  161 1   
   162  162  163 1   
   163  162  171 1   
   164  163  164 1   
   165  163  166 1   
   166  163  172 1   
   167  164  165 2   
   168  164  177 1   
   169  166  167 1   
   170  166  173 1   
   171  166  174 1   
   172  167  168 1   
   173  167  175 1   
   174  167  176 1   
   175  168  169 1   
   176  168  170 1   
   177  177  178 1   
   178  177  182 1   
   179  178  179 1   
   180  178  180 1   
   181  178  181 1   
   182  184  185 1   
   183  184  186 1   
   184  187  188 1   
   185  187  189 1   
   186  190  191 1   
   187  190  192 1   
@<TRIPOS>SUBSTRUCTURE
     1 MOL         1 TEMP              0 ****  ****    0 ROOT
