@<TRIPOS>MOLECULE
MOL
  182   178     1     0     0
SMALL
resp


@<TRIPOS>ATOM
      1 C1         -0.1760   -4.0170    6.1060 c3        1 MOL     -0.355939
      2 C2          0.0900   -3.7340    4.5880 c         1 MOL      0.696281
      3 O1         -0.8060   -3.7860    3.7120 o         1 MOL     -0.563786
      4 H1          0.6980   -3.7270    6.6870 hc        1 MOL      0.107998
      5 H2         -1.0400   -3.4400    6.4380 hc        1 MOL      0.107998
      6 H3         -0.3720   -5.0800    6.2490 hc        1 MOL      0.107998
      7 N1          1.2920   -3.2560    4.2780 n         1 MOL     -0.506900
      8 C3          1.7360   -3.1770    2.9010 c3        1 MOL     -0.017010
      9 C4          1.8930   -4.5530    2.2360 c         1 MOL      0.551873
     10 O2          2.1960   -5.6210    2.7670 o         1 MOL     -0.539364
     11 C5          3.0660   -2.4280    2.8800 c3        1 MOL     -0.134411
     12 C6          3.2960   -1.6030    1.6100 c         1 MOL      0.570262
     13 O3          4.0080   -0.5880    1.6130 o         1 MOL     -0.676228
     14 O4          2.8740   -1.9910    0.4780 o         1 MOL     -0.676228
     15 H4          1.9950   -3.3380    4.9980 hn        1 MOL      0.314934
     16 H5          0.9680   -2.5840    2.4000 h1        1 MOL     -0.170030
     17 H6          3.8770   -3.1390    2.9990 hc        1 MOL      0.097516
     18 H7          3.0650   -1.6810    3.6740 hc        1 MOL      0.097516
     19 N2          1.7330   -4.5780    0.8810 n         1 MOL     -0.174765
     20 C7          1.8640   -5.7320    0.0050 c3        1 MOL     -0.099185
     21 C8          3.0790   -5.6690   -0.9300 c         1 MOL      0.492675
     22 O5          3.5340   -6.6680   -1.4900 o         1 MOL     -0.538442
     23 C9          0.5430   -6.1010   -0.7130 c3        1 MOL     -0.056327
     24 C10        -0.0010   -4.8440   -1.6030 c3        1 MOL      0.175975
     25 C11        -1.3600   -5.0400   -2.2590 c3        1 MOL     -0.034299
     26 C12        -1.3960   -6.1820   -3.2570 c3        1 MOL      0.071731
     27 N3         -2.6900   -6.1510   -4.0510 n4        1 MOL     -0.265544
     28 H8          1.6230   -3.6720    0.4450 hn        1 MOL      0.271150
     29 H9          2.0640   -6.6080    0.6190 h1        1 MOL      0.126764
     30 H10        -0.3040   -6.4080   -0.1100 hc        1 MOL      0.033477
     31 H11         0.7370   -6.8780   -1.4660 hc        1 MOL      0.033477
     32 H12         0.7450   -4.6070   -2.3620 hc        1 MOL     -0.070285
     33 H13        -0.0590   -4.0580   -0.8540 hc        1 MOL     -0.070285
     34 H14        -1.5820   -4.0680   -2.6930 hc        1 MOL      0.019844
     35 H15        -2.0810   -5.2770   -1.4800 hc        1 MOL      0.019844
     36 H16        -1.2020   -7.1580   -2.8180 hx        1 MOL      0.065207
     37 H17        -0.4980   -6.0330   -3.8720 hx        1 MOL      0.065207
     38 H18        -2.7150   -6.8910   -4.7310 hn        1 MOL      0.244633
     39 H19        -3.5190   -6.0590   -3.4880 hn        1 MOL      0.244633
     40 H20        -2.7750   -5.3220   -4.6230 hn        1 MOL      0.244633
     41 N4          3.6920   -4.4700   -1.0490 n         1 MOL     -0.260179
     42 C13         5.0130   -4.3240   -1.7000 c3        1 MOL      0.043265
     43 C14         6.1310   -3.5830   -0.9800 c         1 MOL      0.444449
     44 O6          7.2690   -3.5970   -1.3500 o         1 MOL     -0.506576
     45 C15         4.8970   -3.5830   -3.1230 c3        1 MOL     -0.413643
     46 C16         4.3420   -2.1560   -3.0360 c         1 MOL      0.906882
     47 O7          3.4520   -1.6760   -3.8100 o         1 MOL     -0.792001
     48 O8          4.7380   -1.3690   -2.1650 o         1 MOL     -0.792001
     49 H21         3.2450   -3.7140   -0.5370 hn        1 MOL      0.055166
     50 H22         5.4330   -5.3230   -1.8100 h1        1 MOL      0.125612
     51 H23         4.2340   -4.1470   -3.7700 hc        1 MOL      0.120755
     52 H24         5.9030   -3.5610   -3.5550 hc        1 MOL      0.120755
     53 N5          5.8430   -3.0330    0.2190 n         1 MOL     -0.139597
     54 C17         6.7560   -2.4980    1.1270 c3        1 MOL     -0.204494
     55 C18         7.5140   -1.2670    0.6800 c         1 MOL      0.560622
     56 O9          8.5880   -1.0170    1.1970 o         1 MOL     -0.549502
     57 H25         4.8760   -2.9210    0.4870 hn        1 MOL      0.097510
     58 H26         7.5460   -3.2290    1.2740 h1        1 MOL      0.100729
     59 H27         6.3050   -2.2690    2.0930 h1        1 MOL      0.100729
     60 N6          6.9670   -0.4380   -0.2350 n         1 MOL     -0.151407
     61 C19         7.3950    0.8860   -0.4830 c3        1 MOL      0.094682
     62 C20         6.1930    1.9400   -0.6230 c         1 MOL      0.337419
     63 O10         5.0400    1.5340   -0.7450 o         1 MOL     -0.420789
     64 C21         8.1020    0.8550   -1.8200 c3        1 MOL     -0.393389
     65 C22         8.9110    2.2270   -2.0420 c         1 MOL      0.698203
     66 N7          8.8490    2.9060   -3.1480 n         1 MOL     -0.774803
     67 O11         9.5710    2.7510   -1.1350 o         1 MOL     -0.568433
     68 H28         6.1630   -0.7810   -0.7360 hn        1 MOL      0.173711
     69 H29         8.0690    1.2400    0.3010 h1        1 MOL      0.054474
     70 H30         7.4270    0.6480   -2.6470 hc        1 MOL      0.123231
     71 H31         8.8860    0.0980   -1.8700 hc        1 MOL      0.123231
     72 H32         8.3760    2.5340   -3.9630 hn        1 MOL      0.355878
     73 H33         9.3310    3.7980   -3.1200 hn        1 MOL      0.355878
     74 N8          6.5130    3.2310   -0.6300 n         1 MOL     -0.189862
     75 C23         5.5510    4.3280   -0.7270 c3        1 MOL     -0.481789
     76 C24         4.4530    4.3060    0.2990 c         1 MOL      0.715687
     77 O12         4.7380    4.1500    1.5370 o         1 MOL     -0.532416
     78 H34         7.4750    3.5000   -0.4770 hn        1 MOL      0.278602
     79 H35         5.2460    4.3080   -1.7730 h1        1 MOL      0.168371
     80 H36         6.2160    5.1480   -0.4500 h1        1 MOL      0.168371
     81 N9          3.2380    4.5870   -0.0880 n         1 MOL     -0.592807
     82 C25         2.0600    4.4400    0.7750 c3        1 MOL      0.248030
     83 C26         1.7660    2.9710    1.1270 c         1 MOL      0.621044
     84 O13         2.3110    2.0380    0.5090 o         1 MOL     -0.592027
     85 C27         0.9090    5.1780    0.0640 c3        1 MOL     -0.074410
     86 C28         1.1770    6.6370   -0.0550 ca        1 MOL      0.079525
     87 C29         1.7990    7.2010   -1.1730 ca        1 MOL     -0.202331
     88 C30         0.9020    7.4670    1.0470 ca        1 MOL     -0.202331
     89 C31         2.2870    8.5140   -1.2370 ca        1 MOL     -0.170390
     90 C32         1.4260    8.7870    1.0300 ca        1 MOL     -0.170390
     91 C33         2.0440    9.3700   -0.1360 ca        1 MOL      0.244409
     92 O14         2.6130   10.5970   -0.0090 oh        1 MOL     -0.456915
     93 H37         3.1110    4.7330   -1.0810 hn        1 MOL      0.280663
     94 H38         2.2770    4.9040    1.7430 h1        1 MOL      0.060630
     95 H39        -0.0300    5.0040    0.5870 hc        1 MOL      0.017894
     96 H40         0.7530    4.7370   -0.9130 hc        1 MOL      0.017894
     97 H41         2.0720    6.5750   -2.0040 ha        1 MOL      0.137321
     98 H42         0.3790    7.1450    1.9340 ha        1 MOL      0.137321
     99 H43         2.8180    8.8420   -2.1140 ha        1 MOL      0.134391
    100 H44         1.3420    9.4630    1.8700 ha        1 MOL      0.134391
    101 H45         3.1200   10.9490   -0.7430 ho        1 MOL      0.379338
    102 N10         0.7680    2.7390    2.0250 n         1 MOL     -0.754049
    103 C34         0.1400    1.4910    2.6340 c3        1 MOL      0.171499
    104 C35        -0.1470    0.4640    1.5360 c         1 MOL      0.405542
    105 O15         0.7050   -0.1450    0.8480 o         1 MOL     -0.301223
    106 C36         1.0130    0.8550    3.7340 c3        1 MOL      0.230776
    107 C37         0.2030   -0.1650    4.5480 c3        1 MOL      0.064905
    108 C38         1.6070    1.8680    4.7860 c3        1 MOL     -0.387952
    109 C39        -0.9440    0.3790    5.3670 c3        1 MOL     -0.303848
    110 H46         0.3940    3.5900    2.4160 hn        1 MOL      0.327107
    111 H47        -0.8450    1.7530    3.0200 h1        1 MOL      0.062523
    112 H48         1.8980    0.3610    3.3110 hc        1 MOL      0.077457
    113 H49         0.8950   -0.7970    5.1210 hc        1 MOL     -0.001138
    114 H50        -0.2540   -0.8780    3.8700 hc        1 MOL     -0.001138
    115 H51         2.1190    1.3280    5.5870 hc        1 MOL      0.097109
    116 H52         2.3050    2.5210    4.2650 hc        1 MOL      0.097109
    117 H53         0.8540    2.5110    5.2280 hc        1 MOL      0.097109
    118 H54        -0.6030    0.9790    6.2080 hc        1 MOL      0.073593
    119 H55        -1.5850    0.9850    4.7290 hc        1 MOL      0.073593
    120 H56        -1.5300   -0.4700    5.7220 hc        1 MOL      0.073593
    121 N11        -1.4500    0.1770    1.3660 n         1 MOL     -0.501591
    122 C40        -1.9210   -0.8550    0.4250 c3        1 MOL     -0.101406
    123 C41        -3.3330   -0.8200   -0.1110 c         1 MOL      0.541270
    124 O16        -3.7270   -1.6830   -0.9030 o         1 MOL     -0.558898
    125 C42        -1.7640   -2.0850    1.1920 c3        1 MOL      0.377195
    126 O17        -2.6640   -2.2520    2.2710 oh        1 MOL     -0.652104
    127 H57        -2.0680    0.6410    2.0190 hn        1 MOL      0.309795
    128 H58        -1.2110   -0.8770   -0.3980 h1        1 MOL      0.131256
    129 H59        -0.8060   -2.1470    1.7190 h1        1 MOL     -0.009517
    130 H60        -1.8200   -2.9410    0.5230 h1        1 MOL     -0.009517
    131 H61        -2.3180   -2.7920    2.9860 ho        1 MOL      0.410817
    132 N12        -4.1920    0.0770    0.4110 n         1 MOL     -0.367204
    133 C43        -5.6070    0.2870   -0.0630 c3        1 MOL      0.011654
    134 C44        -5.6600    1.1150   -1.3770 c         1 MOL      0.686433
    135 O18        -4.7650    1.8650   -1.5760 o         1 MOL     -0.568021
    136 C45        -6.4550    0.8670    1.1570 c3        1 MOL     -0.223745
    137 H62        -3.7590    0.8200    0.9330 hn        1 MOL      0.236181
    138 H63        -5.9690   -0.7200   -0.3090 h1        1 MOL      0.128712
    139 H64        -6.2040    0.3800    2.0960 hc        1 MOL      0.083351
    140 H65        -6.3000    1.9330    1.2980 hc        1 MOL      0.083351
    141 H66        -7.5110    0.7270    0.9480 hc        1 MOL      0.083351
    142 N13        -6.6980    1.0230   -2.2750 n         1 MOL     -0.735177
    143 C46        -7.9270    0.1610   -2.0950 c3        1 MOL      0.341008
    144 C47        -9.1000    0.9360   -2.6810 c         1 MOL      0.449507
    145 O19        -9.0400    1.4570   -3.7750 o         1 MOL     -0.553600
    146 C48        -7.6100   -1.2150   -2.6210 c3        1 MOL     -0.235479
    147 H67        -6.6240    1.5640   -3.1260 hn        1 MOL      0.363077
    148 H68        -8.0510    0.0350   -1.0220 h1        1 MOL     -0.027473
    149 H69        -7.7300   -1.2030   -3.7020 hc        1 MOL      0.066859
    150 H70        -6.6580   -1.6640   -2.3260 hc        1 MOL      0.066859
    151 H71        -8.3500   -1.9110   -2.2200 hc        1 MOL      0.066859
    152 N14       -10.2530    1.0850   -2.1000 n         1 MOL     -0.282434
    153 C49       -10.6470    0.6400   -0.7650 c3        1 MOL     -0.415247
    154 C50       -10.3120    1.7170    0.3180 c         1 MOL      0.572047
    155 O20       -10.3570    1.4160    1.5330 o         1 MOL     -0.513161
    156 C51       -12.1380    0.2740   -0.7900 c3        1 MOL      0.132225
    157 C52       -12.5830   -0.5830    0.4210 c3        1 MOL     -0.156746
    158 C53       -14.0390   -0.9210    0.2840 c         1 MOL      0.628380
    159 O21       -14.8950   -0.0440    0.4910 o         1 MOL     -0.637451
    160 O22       -14.3450   -2.0220   -0.2880 o         1 MOL     -0.637451
    161 H72       -10.9590    1.5920   -2.6110 hn        1 MOL      0.265641
    162 H73       -10.0710   -0.2360   -0.4660 h1        1 MOL      0.185738
    163 H74       -12.4370   -0.2220   -1.7140 hc        1 MOL      0.035822
    164 H75       -12.7530    1.1590   -0.6500 hc        1 MOL      0.035822
    165 H76       -12.3130   -0.0830    1.3550 hc        1 MOL      0.022706
    166 H77       -11.9980   -1.4990    0.3810 hc        1 MOL      0.022706
    167 N15        -9.9050    2.9200   -0.1320 n         1 MOL     -0.336035
    168 C54        -9.3500    3.9400    0.7790 c3        1 MOL     -0.074534
    169 H78        -8.2620    3.9260    0.7190 h1        1 MOL      0.070259
    170 H79        -9.7170    4.9250    0.4890 h1        1 MOL      0.070259
    171 H80        -9.6610    3.7230    1.8010 h1        1 MOL      0.070259
    172 H81       -10.0550    3.0830   -1.1170 hn        1 MOL      0.268098
    173 Ca1         2.9250    0.1060   -1.1510 Ca        1 MOL      1.756342
    174 O23         1.1360   -1.5860   -2.0420 oh        1 MOL     -0.884120
    175 H82         0.2520   -1.2950   -2.2930 ho        1 MOL      0.429261
    176 H83         1.3740   -2.2350   -2.7140 ho        1 MOL      0.429261
    177 O24         3.5860    1.3880   -3.4280 oh        1 MOL     -0.884120
    178 H84         3.7010    2.2230   -3.8850 ho        1 MOL      0.429261
    179 H85         3.7550    0.7210   -4.0950 ho        1 MOL      0.429261
    180 O25         0.6620    1.5080   -2.1310 oh        1 MOL     -0.884120
    181 H86         0.9880    2.3770   -2.3710 ho        1 MOL      0.429261
    182 H87        -0.2880    1.5910   -2.1450 ho        1 MOL      0.429261
@<TRIPOS>BOND
     1    1    2 1   
     2    1    4 1   
     3    1    5 1   
     4    1    6 1   
     5    2    3 2   
     6    2    7 1   
     7    7    8 1   
     8    7   15 1   
     9    8    9 1   
    10    8   11 1   
    11    8   16 1   
    12    9   10 2   
    13    9   19 1   
    14   11   12 1   
    15   11   17 1   
    16   11   18 1   
    17   12   13 1   
    18   12   14 1   
    19   19   20 1   
    20   19   28 1   
    21   20   21 1   
    22   20   23 1   
    23   20   29 1   
    24   21   22 2   
    25   21   41 1   
    26   23   24 1   
    27   23   30 1   
    28   23   31 1   
    29   24   25 1   
    30   24   32 1   
    31   24   33 1   
    32   25   26 1   
    33   25   34 1   
    34   25   35 1   
    35   26   27 1   
    36   26   36 1   
    37   26   37 1   
    38   27   38 1   
    39   27   39 1   
    40   27   40 1   
    41   41   42 1   
    42   41   49 1   
    43   42   43 1   
    44   42   45 1   
    45   42   50 1   
    46   43   44 2   
    47   43   53 1   
    48   45   46 1   
    49   45   51 1   
    50   45   52 1   
    51   46   47 1   
    52   46   48 1   
    53   53   54 1   
    54   53   57 1   
    55   54   55 1   
    56   54   58 1   
    57   54   59 1   
    58   55   56 2   
    59   55   60 1   
    60   60   61 1   
    61   60   68 1   
    62   61   62 1   
    63   61   64 1   
    64   61   69 1   
    65   62   63 2   
    66   62   74 1   
    67   64   65 1   
    68   64   70 1   
    69   64   71 1   
    70   65   66 1   
    71   65   67 2   
    72   66   72 1   
    73   66   73 1   
    74   74   75 1   
    75   74   78 1   
    76   75   76 1   
    77   75   79 1   
    78   75   80 1   
    79   76   77 2   
    80   76   81 1   
    81   81   82 1   
    82   81   93 1   
    83   82   83 1   
    84   82   85 1   
    85   82   94 1   
    86   83   84 2   
    87   83  102 1   
    88   85   86 1   
    89   85   95 1   
    90   85   96 1   
    91   86   87 ar  
    92   86   88 ar  
    93   87   89 ar  
    94   87   97 1   
    95   88   90 ar  
    96   88   98 1   
    97   89   91 ar  
    98   89   99 1   
    99   90   91 ar  
   100   90  100 1   
   101   91   92 1   
   102   92  101 1   
   103  102  103 1   
   104  102  110 1   
   105  103  104 1   
   106  103  106 1   
   107  103  111 1   
   108  104  105 2   
   109  104  121 1   
   110  106  107 1   
   111  106  108 1   
   112  106  112 1   
   113  107  109 1   
   114  107  113 1   
   115  107  114 1   
   116  108  115 1   
   117  108  116 1   
   118  108  117 1   
   119  109  118 1   
   120  109  119 1   
   121  109  120 1   
   122  121  122 1   
   123  121  127 1   
   124  122  123 1   
   125  122  125 1   
   126  122  128 1   
   127  123  124 2   
   128  123  132 1   
   129  125  126 1   
   130  125  129 1   
   131  125  130 1   
   132  126  131 1   
   133  132  133 1   
   134  132  137 1   
   135  133  134 1   
   136  133  136 1   
   137  133  138 1   
   138  134  135 2   
   139  134  142 1   
   140  136  139 1   
   141  136  140 1   
   142  136  141 1   
   143  142  143 1   
   144  142  147 1   
   145  143  144 1   
   146  143  146 1   
   147  143  148 1   
   148  144  145 2   
   149  144  152 1   
   150  146  149 1   
   151  146  150 1   
   152  146  151 1   
   153  152  153 1   
   154  152  161 1   
   155  153  154 1   
   156  153  156 1   
   157  153  162 1   
   158  154  155 2   
   159  154  167 1   
   160  156  157 1   
   161  156  163 1   
   162  156  164 1   
   163  157  158 1   
   164  157  165 1   
   165  157  166 1   
   166  158  159 1   
   167  158  160 1   
   168  167  168 1   
   169  167  172 1   
   170  168  169 1   
   171  168  170 1   
   172  168  171 1   
   173  174  175 1   
   174  174  176 1   
   175  177  178 1   
   176  177  179 1   
   177  180  181 1   
   178  180  182 1   
@<TRIPOS>SUBSTRUCTURE
     1 MOL         1 TEMP              0 ****  ****    0 ROOT
