@<TRIPOS>MOLECULE
MOL
  178   175     1     0     0
SMALL
resp


@<TRIPOS>ATOM
      1 C1          2.3460   -1.0260    5.3350 c3        1 MOL     -0.273105
      2 C2          3.3860   -0.8570    4.2050 c         1 MOL      0.680133
      3 O1          3.2550   -0.0420    3.3050 o         1 MOL     -0.577240
      4 H1          2.2290   -2.0840    5.5650 hc        1 MOL      0.065289
      5 H2          2.6870   -0.4960    6.2250 hc        1 MOL      0.065289
      6 H3          1.3890   -0.6170    5.0130 hc        1 MOL      0.065289
      7 N1          4.5510   -1.5100    4.2990 n         1 MOL     -0.469644
      8 C3          5.7510   -1.1680    3.5370 c3        1 MOL      0.069958
      9 C4          5.9950   -1.8930    2.1430 c         1 MOL      0.569796
     10 O2          7.0030   -1.6980    1.3810 o         1 MOL     -0.546259
     11 C5          6.8600   -1.2700    4.5740 c3        1 MOL     -0.095520
     12 C6          8.1320   -0.4660    4.2520 c         1 MOL      0.650292
     13 O3          9.1930   -0.8830    4.8320 o         1 MOL     -0.712305
     14 O4          8.0710    0.6280    3.5660 o         1 MOL     -0.712305
     15 H4          4.6280   -2.2790    4.9500 hn        1 MOL      0.244030
     16 H5          5.6460   -0.0990    3.3420 h1        1 MOL      0.085190
     17 H6          7.2050   -2.3040    4.5880 hc        1 MOL     -0.007751
     18 H7          6.5400   -1.1060    5.6070 hc        1 MOL     -0.007751
     19 N2          5.0150   -2.7670    1.8360 n         1 MOL     -0.474145
     20 C7          4.9610   -3.5600    0.6180 c3        1 MOL      0.187644
     21 C8          4.8870   -2.6980   -0.6910 c         1 MOL      0.633299
     22 O5          3.7820   -2.4190   -1.1980 o         1 MOL     -0.730882
     23 C9          6.0480   -4.6590    0.5940 c3        1 MOL     -0.534023
     24 H8          4.2450   -2.9050    2.4720 hn        1 MOL      0.249939
     25 H9          3.9680   -4.0060    0.6920 h1        1 MOL      0.129734
     26 H10         5.6860   -5.4910   -0.0160 hc        1 MOL      0.144003
     27 H11         7.0430   -4.3510    0.2770 hc        1 MOL      0.144003
     28 H12         6.1640   -4.9870    1.6280 hc        1 MOL      0.144003
     29 N3          5.9900   -2.3060   -1.3610 n         1 MOL     -0.473726
     30 C10         5.9430   -1.2680   -2.4010 c3        1 MOL      0.056832
     31 C11         6.2440    0.1750   -1.9860 c         1 MOL      0.540558
     32 O6          6.7850    1.0250   -2.7540 o         1 MOL     -0.582879
     33 C12         6.7720   -1.7010   -3.6020 c3        1 MOL     -0.177064
     34 C13         6.6230   -3.1670   -3.8990 c         1 MOL      0.780089
     35 O7          5.5360   -3.6000   -4.3860 o         1 MOL     -0.734920
     36 O8          7.6220   -3.8430   -3.8230 o         1 MOL     -0.734920
     37 H13         6.8890   -2.4950   -0.9370 hn        1 MOL      0.333658
     38 H14         4.8720   -1.2160   -2.6320 h1        1 MOL      0.075396
     39 H15         7.8500   -1.6210   -3.4490 hc        1 MOL      0.021296
     40 H16         6.4060   -1.1540   -4.4700 hc        1 MOL      0.021296
     41 N4          5.9590    0.5020   -0.7460 n         1 MOL     -0.268010
     42 C14         6.2460    1.8040   -0.1910 c3        1 MOL      0.033984
     43 C15         5.2650    2.8750   -0.6670 c         1 MOL      0.675971
     44 O9          5.6790    3.9680   -1.0010 o         1 MOL     -0.568660
     45 H17         5.5030   -0.1380   -0.1070 hn        1 MOL      0.211442
     46 H18         7.2250    2.2140   -0.4460 h1        1 MOL      0.044517
     47 H19         6.1290    1.7570    0.8870 h1        1 MOL      0.044517
     48 N5          3.9610    2.5630   -0.6530 n         1 MOL     -0.539296
     49 C16         2.9120    3.3780   -1.3530 c3        1 MOL     -0.003824
     50 C17         2.4440    4.6480   -0.5730 c         1 MOL      0.513790
     51 O10         2.7500    4.8120    0.6370 o         1 MOL     -0.482878
     52 C18         1.6980    2.4210   -1.6320 c3        1 MOL     -0.344634
     53 C19         2.0870    1.3330   -2.6540 c         1 MOL      0.680663
     54 N6          2.5250    1.7680   -3.8190 n         1 MOL     -0.784618
     55 O11         2.0040    0.1350   -2.4460 o         1 MOL     -0.623787
     56 H20         3.7870    1.5780   -0.5390 hn        1 MOL      0.318502
     57 H21         3.2610    3.7410   -2.3200 h1        1 MOL      0.035141
     58 H22         0.9310    3.0790   -2.0460 hc        1 MOL      0.168171
     59 H23         1.2580    2.0540   -0.7030 hc        1 MOL      0.168171
     60 H24         2.5950    2.7800   -3.8770 hn        1 MOL      0.377451
     61 H25         2.7520    1.0730   -4.5020 hn        1 MOL      0.377451
     62 N7          1.7670    5.5050   -1.3430 n         1 MOL     -0.294022
     63 C20         1.2500    6.7730   -0.9640 c3        1 MOL     -0.116243
     64 C21        -0.2060    6.9580   -1.3950 c         1 MOL      0.522840
     65 O12        -0.6370    6.4730   -2.4980 o         1 MOL     -0.498481
     66 H26         1.7790    5.3130   -2.3340 hn        1 MOL      0.235851
     67 H27         1.8390    7.5760   -1.4110 h1        1 MOL      0.090023
     68 H28         1.2760    6.9220    0.1170 h1        1 MOL      0.090023
     69 N8         -0.9570    7.7680   -0.6130 n         1 MOL     -0.514069
     70 C22        -2.4030    7.9250   -0.6930 c3        1 MOL     -0.177990
     71 C23        -3.1280    6.6960   -0.1370 c         1 MOL      0.451589
     72 O13        -4.3320    6.7790    0.0550 o         1 MOL     -0.536511
     73 C24        -2.9480    9.2350   -0.1400 c3        1 MOL      0.567113
     74 C25        -2.9510    9.3210    1.4370 c3        1 MOL     -0.294675
     75 O14        -2.4430   10.3590   -0.6950 oh        1 MOL     -0.613910
     76 H29        -0.4950    8.1230    0.2150 hn        1 MOL      0.308642
     77 H30        -2.6780    7.9160   -1.7530 h1        1 MOL      0.140217
     78 H31        -4.0010    9.2480   -0.4300 h1        1 MOL     -0.001328
     79 H32        -1.5280   10.3210   -0.4090 ho        1 MOL      0.357619
     80 H33        -3.0190   10.3630    1.7560 hc        1 MOL      0.054446
     81 H34        -3.8070    8.7230    1.7580 hc        1 MOL      0.054446
     82 H35        -2.0510    8.8720    1.8610 hc        1 MOL      0.054446
     83 N9         -2.4040    5.5640    0.1850 n         1 MOL     -0.065120
     84 C26        -2.9930    4.3150    0.6990 c3        1 MOL     -0.053549
     85 C27        -2.4550    3.0960   -0.0270 c         1 MOL      0.432149
     86 O15        -1.4470    3.2320   -0.6510 o         1 MOL     -0.419296
     87 C28        -2.8750    4.1700    2.1860 c3        1 MOL      0.110230
     88 C29        -1.4650    3.6480    2.7680 c3        1 MOL      0.034285
     89 C30        -3.3510    5.3580    3.0130 c3        1 MOL     -0.366443
     90 C31        -0.3380    4.5510    2.4220 c3        1 MOL     -0.033107
     91 H36        -1.4220    5.5880   -0.0310 hn        1 MOL      0.036653
     92 H37        -4.0420    4.4410    0.4370 h1        1 MOL      0.061725
     93 H38        -3.5800    3.3970    2.5200 hc        1 MOL     -0.016068
     94 H39        -1.3290    2.6200    2.4130 hc        1 MOL     -0.002288
     95 H40        -1.6500    3.6350    3.8510 hc        1 MOL     -0.002288
     96 H41        -2.8410    6.2260    2.6010 hc        1 MOL      0.095148
     97 H42        -4.3970    5.6310    2.9320 hc        1 MOL      0.095148
     98 H43        -3.0600    5.2790    4.0550 hc        1 MOL      0.095148
     99 H44        -0.1780    4.4410    1.3550 hc        1 MOL      0.021453
    100 H45        -0.6320    5.5560    2.7420 hc        1 MOL      0.021453
    101 H46         0.5490    4.1860    2.9420 hc        1 MOL      0.021453
    102 N10        -3.0540    1.8890    0.1800 n         1 MOL     -0.477614
    103 C32        -2.5200    0.6270   -0.3210 c3        1 MOL      0.130808
    104 C33        -3.5680   -0.4690   -0.5250 c         1 MOL      0.455482
    105 O16        -3.3190   -1.6600   -0.4710 o         1 MOL     -0.411110
    106 C34        -1.3760    0.1120    0.4970 c3        1 MOL     -0.002337
    107 C35        -0.4250   -0.7350   -0.3010 c         1 MOL      0.485200
    108 O17         0.5490   -1.2450    0.2500 o         1 MOL     -0.704967
    109 O18        -0.5520   -0.8420   -1.5200 o         1 MOL     -0.704967
    110 H47        -3.7850    1.7810    0.8680 hn        1 MOL      0.276981
    111 H48        -2.0960    0.7950   -1.3080 h1        1 MOL      0.058784
    112 H49        -1.6870   -0.3150    1.4440 hc        1 MOL      0.052149
    113 H50        -0.7960    0.9730    0.8310 hc        1 MOL      0.052149
    114 N11        -4.8390   -0.0490   -0.7270 n         1 MOL     -0.462597
    115 C36        -5.9690   -0.9860   -0.8720 c3        1 MOL      0.329915
    116 C37        -5.9180   -2.1860    0.0980 c         1 MOL      0.245104
    117 O19        -5.8730   -1.9680    1.3520 o         1 MOL     -0.539511
    118 C38        -7.3170   -0.1890   -0.6460 c3        1 MOL     -0.249253
    119 C39        -8.5960   -0.9450   -1.0630 ca        1 MOL      0.111070
    120 C40        -8.8740   -1.1730   -2.3840 ca        1 MOL     -0.221397
    121 C41        -9.2880   -1.5320    0.0220 ca        1 MOL     -0.221397
    122 C42        -9.9460   -2.0690   -2.6870 ca        1 MOL     -0.030780
    123 C43       -10.3760   -2.3350   -0.2850 ca        1 MOL     -0.030780
    124 C44       -10.7810   -2.5330   -1.6360 ca        1 MOL     -0.191432
    125 H51        -4.9960    0.9420   -0.5890 hn        1 MOL      0.215725
    126 H52        -5.9860   -1.2740   -1.9230 h1        1 MOL     -0.027931
    127 H53        -7.2180    0.7600   -1.1610 hc        1 MOL      0.099114
    128 H54        -7.4720    0.0520    0.4070 hc        1 MOL      0.099114
    129 H55        -8.3360   -0.7220   -3.2020 ha        1 MOL      0.150899
    130 H56        -9.0600   -1.4050    1.0670 ha        1 MOL      0.150899
    131 H57       -10.2300   -2.3350   -3.6860 ha        1 MOL      0.091506
    132 H58       -11.0110   -2.6640    0.5310 ha        1 MOL      0.091506
    133 H59       -11.6720   -3.1450   -1.7320 ha        1 MOL      0.119267
    134 N12        -5.9850   -3.4910   -0.3440 n         1 MOL      0.125754
    135 C45        -6.1620   -4.5750    0.5680 c3        1 MOL      0.054649
    136 C46        -5.0660   -4.8170    1.6260 c         1 MOL      0.225701
    137 O20        -5.1010   -5.7310    2.3980 o         1 MOL     -0.490253
    138 C47        -6.2740   -5.8460   -0.3040 c3        1 MOL     -0.134139
    139 C48        -6.9020   -5.2930   -1.5540 c3        1 MOL      0.032866
    140 C49        -6.3670   -3.8490   -1.6920 c3        1 MOL     -0.095626
    141 H60        -7.1360   -4.4340    1.0320 h1        1 MOL      0.058308
    142 H61        -5.2680   -6.2420   -0.4620 hc        1 MOL      0.068746
    143 H62        -6.8840   -6.6560    0.1010 hc        1 MOL      0.068746
    144 H63        -6.6640   -5.8870   -2.4450 hc        1 MOL      0.000939
    145 H64        -7.9960   -5.2320   -1.4580 hc        1 MOL      0.000939
    146 H65        -5.4480   -3.8600   -2.2830 h1        1 MOL      0.055068
    147 H66        -7.2650   -3.3290   -2.0470 h1        1 MOL      0.055068
    148 N13        -3.9070   -4.0690    1.5260 n         1 MOL      0.199115
    149 C50        -2.8210   -4.1230    2.4690 c3        1 MOL     -0.047175
    150 C51        -2.9400   -3.0710    3.5590 c         1 MOL      0.311331
    151 O21        -2.6130   -3.4350    4.7240 o         1 MOL     -0.526825
    152 C52        -1.3890   -4.0620    1.8360 c3        1 MOL      0.120230
    153 C53        -1.1630   -5.1640    0.7990 c3        1 MOL     -0.151371
    154 C54         0.0380   -4.7890   -0.1900 c         1 MOL      0.753420
    155 O22         1.1870   -4.5740    0.1940 o         1 MOL     -0.769153
    156 O23        -0.1990   -4.4220   -1.3700 o         1 MOL     -0.769153
    157 H67        -3.9240   -3.3440    0.8220 hn        1 MOL     -0.136141
    158 H68        -2.8190   -5.1260    2.9050 h1        1 MOL      0.071234
    159 H69        -0.5480   -4.0010    2.5280 hc        1 MOL      0.015584
    160 H70        -1.4070   -3.0690    1.3700 hc        1 MOL      0.015584
    161 H71        -2.0400   -5.4030    0.2030 hc        1 MOL     -0.008886
    162 H72        -0.9230   -6.1020    1.2950 hc        1 MOL     -0.008886
    163 N14        -3.4610   -1.8710    3.2390 n         1 MOL     -0.087976
    164 C55        -3.6940   -0.8690    4.3010 c3        1 MOL     -0.298346
    165 H73        -3.6070    0.1320    3.8800 h1        1 MOL      0.109124
    166 H74        -4.6940   -1.0030    4.7140 h1        1 MOL      0.109124
    167 H75        -2.9530   -0.9960    5.0900 h1        1 MOL      0.109124
    168 H76        -3.9610   -1.8470    2.3670 hn        1 MOL      0.211420
    169 Ca1         1.3940   -2.3620   -2.0250 Ca        1 MOL      1.814283
    170 O24         0.2930   -2.5270   -4.4380 oh        1 MOL     -0.823666
    171 H77         0.8660   -2.3200   -5.1770 ho        1 MOL      0.395936
    172 H78        -0.5830   -2.5920   -4.8200 ho        1 MOL      0.395936
    173 O25         3.1390   -2.0870   -4.0700 oh        1 MOL     -0.823666
    174 H79         3.7300   -2.8250   -4.2000 ho        1 MOL      0.395936
    175 H80         3.2870   -1.5180   -4.8310 ho        1 MOL      0.395936
    176 O26         2.3530   -4.7210   -2.8940 oh        1 MOL     -0.823666
    177 H81         2.7750   -5.0070   -3.7050 ho        1 MOL      0.395936
    178 H82         2.4540   -5.4560   -2.2960 ho        1 MOL      0.395936
@<TRIPOS>BOND
     1    1    2 1   
     2    1    4 1   
     3    1    5 1   
     4    1    6 1   
     5    2    3 2   
     6    2    7 1   
     7    7    8 1   
     8    7   15 1   
     9    8    9 1   
    10    8   11 1   
    11    8   16 1   
    12    9   10 2   
    13    9   19 1   
    14   11   12 1   
    15   11   17 1   
    16   11   18 1   
    17   12   13 1   
    18   12   14 1   
    19   19   20 1   
    20   19   24 1   
    21   20   21 1   
    22   20   23 1   
    23   20   25 1   
    24   21   22 2   
    25   21   29 1   
    26   23   26 1   
    27   23   27 1   
    28   23   28 1   
    29   29   30 1   
    30   29   37 1   
    31   30   31 1   
    32   30   33 1   
    33   30   38 1   
    34   31   32 2   
    35   31   41 1   
    36   33   34 1   
    37   33   39 1   
    38   33   40 1   
    39   34   35 1   
    40   34   36 1   
    41   41   42 1   
    42   41   45 1   
    43   42   43 1   
    44   42   46 1   
    45   42   47 1   
    46   43   44 2   
    47   43   48 1   
    48   48   49 1   
    49   48   56 1   
    50   49   50 1   
    51   49   52 1   
    52   49   57 1   
    53   50   51 2   
    54   50   62 1   
    55   52   53 1   
    56   52   58 1   
    57   52   59 1   
    58   53   54 1   
    59   53   55 2   
    60   54   60 1   
    61   54   61 1   
    62   62   63 1   
    63   62   66 1   
    64   63   64 1   
    65   63   67 1   
    66   63   68 1   
    67   64   65 2   
    68   64   69 1   
    69   69   70 1   
    70   69   76 1   
    71   70   71 1   
    72   70   73 1   
    73   70   77 1   
    74   71   72 2   
    75   71   83 1   
    76   73   74 1   
    77   73   75 1   
    78   73   78 1   
    79   74   80 1   
    80   74   81 1   
    81   74   82 1   
    82   75   79 1   
    83   83   84 1   
    84   83   91 1   
    85   84   85 1   
    86   84   87 1   
    87   84   92 1   
    88   85   86 2   
    89   85  102 1   
    90   87   88 1   
    91   87   89 1   
    92   87   93 1   
    93   88   90 1   
    94   88   94 1   
    95   88   95 1   
    96   89   96 1   
    97   89   97 1   
    98   89   98 1   
    99   90   99 1   
   100   90  100 1   
   101   90  101 1   
   102  102  103 1   
   103  102  110 1   
   104  103  104 1   
   105  103  106 1   
   106  103  111 1   
   107  104  105 2   
   108  104  114 1   
   109  106  107 1   
   110  106  112 1   
   111  106  113 1   
   112  107  108 1   
   113  107  109 1   
   114  114  115 1   
   115  114  125 1   
   116  115  116 1   
   117  115  118 1   
   118  115  126 1   
   119  116  117 2   
   120  116  134 1   
   121  118  119 1   
   122  118  127 1   
   123  118  128 1   
   124  119  120 ar  
   125  119  121 ar  
   126  120  122 ar  
   127  120  129 1   
   128  121  123 ar  
   129  121  130 1   
   130  122  124 ar  
   131  122  131 1   
   132  123  124 ar  
   133  123  132 1   
   134  124  133 1   
   135  134  135 1   
   136  134  140 1   
   137  135  136 1   
   138  135  138 1   
   139  135  141 1   
   140  136  137 2   
   141  136  148 1   
   142  138  139 1   
   143  138  142 1   
   144  138  143 1   
   145  139  140 1   
   146  139  144 1   
   147  139  145 1   
   148  140  146 1   
   149  140  147 1   
   150  148  149 1   
   151  148  157 1   
   152  149  150 1   
   153  149  152 1   
   154  149  158 1   
   155  150  151 2   
   156  150  163 1   
   157  152  153 1   
   158  152  159 1   
   159  152  160 1   
   160  153  154 1   
   161  153  161 1   
   162  153  162 1   
   163  154  155 1   
   164  154  156 1   
   165  163  164 1   
   166  163  168 1   
   167  164  165 1   
   168  164  166 1   
   169  164  167 1   
   170  170  171 1   
   171  170  172 1   
   172  173  174 1   
   173  173  175 1   
   174  176  177 1   
   175  176  178 1   
@<TRIPOS>SUBSTRUCTURE
     1 MOL         1 TEMP              0 ****  ****    0 ROOT
