@<TRIPOS>MOLECULE
MOL
  185   180     1     0     0
SMALL
resp


@<TRIPOS>ATOM
      1 C1         -4.1930    3.0200   -2.9910 c3        1 MOL     -0.490087
      2 C2         -5.5410    2.7150   -2.2210 c         1 MOL      0.707053
      3 O1         -5.4060    1.9380   -1.2310 o         1 MOL     -0.545129
      4 H1         -4.4210    3.4820   -3.9520 hc        1 MOL      0.133209
      5 H2         -3.5800    3.6990   -2.3980 hc        1 MOL      0.133209
      6 H3         -3.6500    2.0890   -3.1560 hc        1 MOL      0.133209
      7 N1         -6.7670    3.2890   -2.5360 n         1 MOL     -0.629208
      8 C3         -8.0030    3.2090   -1.7550 c3        1 MOL      0.155416
      9 C4         -8.4430    1.8110   -1.2090 c         1 MOL      0.473388
     10 O2         -9.3700    1.8330   -0.3850 o         1 MOL     -0.528991
     11 C5         -7.9880    4.2120   -0.5640 c3        1 MOL     -0.206715
     12 C6         -7.5210    5.5890   -1.0560 c         1 MOL      0.684541
     13 O3         -7.1050    6.5440   -0.2700 o         1 MOL     -0.655077
     14 O4         -7.6610    5.8630   -2.2760 o         1 MOL     -0.655077
     15 H4         -6.7340    3.8110   -3.4040 hn        1 MOL      0.339423
     16 H5         -8.8390    3.4730   -2.4000 h1        1 MOL      0.061604
     17 H6         -7.1970    3.9320    0.1250 hc        1 MOL      0.070107
     18 H7         -8.9770    4.2340   -0.0930 hc        1 MOL      0.070107
     19 N2         -7.8430    0.7160   -1.5990 n         1 MOL     -0.349739
     20 C7         -8.2780   -0.6260   -1.2350 c3        1 MOL      0.072402
     21 C8         -7.1670   -1.5170   -0.6350 c         1 MOL      0.505170
     22 O5         -7.4930   -2.6140   -0.1910 o         1 MOL     -0.571601
     23 C9         -8.9180   -1.3520   -2.4630 c3        1 MOL      0.089478
     24 C10        -9.8580   -2.5450   -2.0960 c3        1 MOL     -0.028690
     25 C11       -10.7580   -3.0000   -3.2380 c3        1 MOL     -0.029693
     26 C12       -11.3280   -4.3750   -2.9740 c3        1 MOL      0.166510
     27 N3        -12.4660   -4.6970   -3.9320 n4        1 MOL     -0.326261
     28 H8         -7.1030    0.8100   -2.2710 hn        1 MOL      0.167012
     29 H9         -9.1110   -0.4960   -0.5520 h1        1 MOL      0.083438
     30 H10        -8.2120   -1.6570   -3.2220 hc        1 MOL     -0.014317
     31 H11        -9.5490   -0.5830   -2.9090 hc        1 MOL     -0.014317
     32 H12       -10.5580   -2.3490   -1.2840 hc        1 MOL      0.027634
     33 H13        -9.1290   -3.3210   -1.8790 hc        1 MOL      0.027634
     34 H14       -10.1650   -2.9100   -4.1440 hc        1 MOL      0.016234
     35 H15       -11.5800   -2.2810   -3.2560 hc        1 MOL      0.016234
     36 H16       -11.6920   -4.4970   -1.9530 hx        1 MOL      0.043084
     37 H17       -10.5790   -5.1590   -3.1180 hx        1 MOL      0.043084
     38 H18       -12.9370   -5.5160   -3.5660 hn        1 MOL      0.258258
     39 H19       -13.1350   -3.9450   -4.0390 hn        1 MOL      0.258258
     40 H20       -12.0570   -4.9030   -4.8280 hn        1 MOL      0.258258
     41 N4         -5.9040   -1.1180   -0.6420 n         1 MOL     -0.352608
     42 C13        -4.7720   -1.7650    0.0460 c3        1 MOL     -0.156647
     43 C14        -4.9750   -1.9040    1.5760 c         1 MOL      0.621265
     44 O6         -5.7840   -1.1970    2.1990 o         1 MOL     -0.495551
     45 C15        -3.5930   -0.7430   -0.2610 c3        1 MOL      0.014832
     46 C16        -2.2240   -1.0230    0.2400 c         1 MOL      0.574014
     47 O7         -2.0010   -1.1470    1.4890 o         1 MOL     -0.669464
     48 O8         -1.2470   -0.9780   -0.5480 o         1 MOL     -0.669464
     49 H21        -5.7050   -0.1920   -1.0100 hn        1 MOL      0.246819
     50 H22        -4.6230   -2.7400   -0.4140 h1        1 MOL      0.109254
     51 H23        -3.8320    0.2790    0.0620 hc        1 MOL      0.053616
     52 H24        -3.5690   -0.6370   -1.3420 hc        1 MOL      0.053616
     53 N5         -4.2860   -2.8280    2.2570 n         1 MOL     -0.450988
     54 C17        -4.4890   -3.0910    3.6390 c3        1 MOL      0.009618
     55 C18        -4.1030   -1.8640    4.6250 c         1 MOL      0.371285
     56 O9         -4.6410   -1.6700    5.7040 o         1 MOL     -0.537483
     57 H25        -3.7180   -3.4950    1.7500 hn        1 MOL      0.300667
     58 H26        -4.0540   -3.9810    4.0890 h1        1 MOL      0.065501
     59 H27        -5.5340   -3.3270    3.7950 h1        1 MOL      0.065501
     60 N6         -3.1970   -1.0490    4.1520 n         1 MOL      0.030175
     61 C19        -2.8510    0.1350    4.8810 c3        1 MOL     -0.144425
     62 C20        -2.5030    1.3640    3.9810 c         1 MOL      0.506156
     63 O10        -2.2680    2.4860    4.5240 o         1 MOL     -0.572156
     64 C21        -1.6300   -0.1760    5.7750 c3        1 MOL     -0.112829
     65 C22        -0.2460   -0.1440    5.1690 c         1 MOL      0.572113
     66 N7          0.6980    0.2510    5.9650 n         1 MOL     -0.722559
     67 O11        -0.0570   -0.3700    3.9890 o         1 MOL     -0.561337
     68 H28        -2.6890   -1.3130    3.3130 hn        1 MOL      0.010853
     69 H29        -3.7330    0.4130    5.4620 h1        1 MOL      0.159609
     70 H30        -1.8150   -1.1430    6.2370 hc        1 MOL      0.057198
     71 H31        -1.6220    0.5090    6.6190 hc        1 MOL      0.057198
     72 H32         0.5710    0.1520    6.9600 hn        1 MOL      0.355330
     73 H33         1.5850    0.4980    5.5330 hn        1 MOL      0.355330
     74 N8         -2.6270    1.2630    2.6810 n         1 MOL     -0.224678
     75 C23        -2.1900    2.3220    1.7790 c3        1 MOL      0.022555
     76 C24        -0.8260    2.2640    1.2330 c         1 MOL      0.706799
     77 O12        -0.1120    1.2820    1.4120 o         1 MOL     -0.564337
     78 H34        -2.7680    0.3470    2.2890 hn        1 MOL      0.076013
     79 H35        -2.4180    3.2710    2.2680 h1        1 MOL      0.068103
     80 H36        -2.8480    2.3890    0.9130 h1        1 MOL      0.068103
     81 N9         -0.4430    3.3370    0.5040 n         1 MOL     -0.735073
     82 C25         0.9640    3.6400    0.1770 c3        1 MOL      0.441525
     83 C26         1.6060    2.5880   -0.7950 c         1 MOL      0.293437
     84 O13         0.8670    1.9280   -1.5840 o         1 MOL     -0.451008
     85 C27         1.1330    5.0910   -0.2990 c3        1 MOL     -0.295443
     86 C28         2.6180    5.4850   -0.7080 ca        1 MOL      0.060917
     87 C29         3.5410    5.6360    0.3440 ca        1 MOL     -0.143894
     88 C30         2.9750    5.8190   -2.0190 ca        1 MOL     -0.143894
     89 C31         4.8260    6.0150    0.0070 ca        1 MOL     -0.249305
     90 C32         4.2780    6.1470   -2.3110 ca        1 MOL     -0.249305
     91 C33         5.2530    6.2390   -1.3210 ca        1 MOL      0.331880
     92 O14         6.5100    6.6480   -1.6110 oh        1 MOL     -0.489899
     93 H37        -1.1300    4.0150    0.2140 hn        1 MOL      0.340888
     94 H38         1.5040    3.5170    1.1190 h1        1 MOL     -0.049728
     95 H39         0.7790    5.7800    0.4710 hc        1 MOL      0.112854
     96 H40         0.5020    5.2230   -1.1840 hc        1 MOL      0.112854
     97 H41         3.3970    5.5200    1.4070 ha        1 MOL      0.142171
     98 H42         2.2980    5.7320   -2.8440 ha        1 MOL      0.142171
     99 H43         5.5680    6.0580    0.7930 ha        1 MOL      0.141540
    100 H44         4.5660    6.2960   -3.3340 ha        1 MOL      0.141540
    101 H45         6.4100    6.9640   -2.5140 ho        1 MOL      0.375975
    102 N10         2.9330    2.4290   -0.6460 n         1 MOL     -0.090785
    103 C34         3.8020    1.4450   -1.2630 c3        1 MOL     -0.176585
    104 C35         4.8650    0.9110   -0.2850 c         1 MOL      0.114662
    105 O15         5.2070   -0.2960   -0.2450 o         1 MOL     -0.239932
    106 C36         4.3050    1.9170   -2.5660 c3        1 MOL      0.419944
    107 C37         3.2030    2.2440   -3.6350 c3        1 MOL     -0.065748
    108 C38         5.2880    0.9030   -3.1640 c3        1 MOL     -0.380272
    109 C39         3.5840    2.8040   -4.9880 c3        1 MOL     -0.172269
    110 H46         3.3770    3.0270    0.0310 hn        1 MOL      0.073970
    111 H47         3.2440    0.5360   -1.5140 h1        1 MOL      0.068161
    112 H48         4.8570    2.8530   -2.4270 hc        1 MOL     -0.134642
    113 H49         2.4990    2.9180   -3.1390 hc        1 MOL      0.063616
    114 H50         2.6500    1.3330   -3.8550 hc        1 MOL      0.063616
    115 H51         6.0080    0.5720   -2.4140 hc        1 MOL      0.095833
    116 H52         4.7290    0.0510   -3.5490 hc        1 MOL      0.095833
    117 H53         5.8190    1.3940   -3.9780 hc        1 MOL      0.095833
    118 H54         2.6720    2.9440   -5.5710 hc        1 MOL      0.039716
    119 H55         4.0540    3.7560   -4.7610 hc        1 MOL      0.039716
    120 H56         4.3080    2.1560   -5.4830 hc        1 MOL      0.039716
    121 N11         5.4100    1.8200    0.5310 n         1 MOL     -0.040808
    122 C40         6.3480    1.5190    1.6060 c3        1 MOL     -0.020739
    123 C41         7.5510    0.5810    1.1590 c         1 MOL      0.206932
    124 O16         8.1900   -0.2200    1.8890 o         1 MOL     -0.461748
    125 C42         6.8910    2.7820    2.2910 c3        1 MOL      0.110035
    126 O17         5.7540    3.6400    2.4770 oh        1 MOL     -0.600601
    127 H57         5.0910    2.7750    0.4500 hn        1 MOL      0.227851
    128 H58         5.8450    0.8920    2.3470 h1        1 MOL      0.106974
    129 H59         7.5970    3.2920    1.6340 h1        1 MOL      0.057342
    130 H60         7.3320    2.4080    3.2150 h1        1 MOL      0.057342
    131 H61         6.0700    4.2850    3.1140 ho        1 MOL      0.415790
    132 N12         7.8530    0.6570   -0.1230 n         1 MOL     -0.057238
    133 C43         8.7410   -0.1910   -0.8920 c3        1 MOL      0.239636
    134 C44         8.5020   -1.7250   -0.7070 c         1 MOL      0.454767
    135 O18         9.4100   -2.5220   -0.5230 o         1 MOL     -0.509819
    136 C45        10.1830    0.2590   -0.8230 c3        1 MOL     -0.243080
    137 H62         7.3500    1.4530   -0.5000 hn        1 MOL      0.112148
    138 H63         8.4250    0.1090   -1.8960 h1        1 MOL      0.009721
    139 H64        10.6960   -0.1550   -1.6980 hc        1 MOL      0.063127
    140 H65        10.2190    1.3500   -0.8040 hc        1 MOL      0.063127
    141 H66        10.6750   -0.0690    0.0870 hc        1 MOL      0.063127
    142 N13         7.2190   -2.1370   -0.7430 n         1 MOL     -0.407784
    143 C46         6.6710   -3.4170   -0.3970 c3        1 MOL      0.503286
    144 C47         5.4680   -3.7830   -1.1820 c         1 MOL      0.308229
    145 O19         4.8050   -2.8740   -1.7160 o         1 MOL     -0.365999
    146 C48         6.4500   -3.3790    1.1060 c3        1 MOL     -0.380920
    147 H67         6.4820   -1.4570   -0.8480 hn        1 MOL     -0.040390
    148 H68         7.4670   -4.1420   -0.5660 h1        1 MOL     -0.033262
    149 H69         7.3840   -3.2710    1.6450 hc        1 MOL      0.104817
    150 H70         5.6470   -2.6590    1.1720 hc        1 MOL      0.104817
    151 H71         6.0900   -4.3740    1.3910 hc        1 MOL      0.104817
    152 N14         5.0820   -5.0670   -1.2670 n         1 MOL     -0.423508
    153 C49         3.9410   -5.5400   -2.0800 c3        1 MOL     -0.258997
    154 C50         4.1880   -5.2260   -3.5580 c         1 MOL      0.486712
    155 O20         3.2750   -5.2280   -4.3890 o         1 MOL     -0.494816
    156 C51         2.5620   -5.1370   -1.5340 c3        1 MOL      0.315272
    157 C52         2.3410   -5.4280   -0.0320 c3        1 MOL     -0.164366
    158 C53         1.0390   -4.7730    0.3970 c         1 MOL      0.674051
    159 O21         0.1820   -5.4310    1.0560 o         1 MOL     -0.697467
    160 O22         0.8790   -3.5010    0.2310 o         1 MOL     -0.697467
    161 H72         5.5480   -5.7070   -0.6370 hn        1 MOL      0.290094
    162 H73         3.9630   -6.6150   -1.8880 h1        1 MOL      0.136547
    163 H74         1.8700   -5.8100   -2.0330 hc        1 MOL     -0.018176
    164 H75         2.2760   -4.1330   -1.8540 hc        1 MOL     -0.018176
    165 H76         3.1800   -5.0320    0.5360 hc        1 MOL      0.004270
    166 H77         2.2490   -6.5130    0.0420 hc        1 MOL      0.004270
    167 N15         5.4610   -5.0420   -3.9920 n         1 MOL     -0.326772
    168 C54         5.8560   -4.4560   -5.3040 c3        1 MOL     -0.090385
    169 H78         5.1920   -4.8320   -6.0830 h1        1 MOL      0.081272
    170 H79         5.7800   -3.3700   -5.2550 h1        1 MOL      0.081272
    171 H80         6.8820   -4.7390   -5.5340 h1        1 MOL      0.081272
    172 H81         6.1540   -5.1290   -3.2610 hn        1 MOL      0.216747
    173 Ca1         0.7090   -1.3340    1.6580 Ca        1 MOL      1.774309
    174 O23        -0.5160   -3.4230    2.9560 oh        1 MOL     -0.854327
    175 H82        -0.8970   -3.7030    3.7870 ho        1 MOL      0.410403
    176 H83        -0.4870   -4.2260    2.4240 ho        1 MOL      0.410403
    177 O24         2.3670   -2.9610    2.9730 oh        1 MOL     -0.854327
    178 H84         2.0670   -3.8720    2.9220 ho        1 MOL      0.410403
    179 H85         3.1360   -2.9960    3.5420 ho        1 MOL      0.410403
    180 O25         2.8700    0.1910    2.3620 oh        1 MOL     -0.854327
    181 H86         3.1190    1.0950    2.1740 ho        1 MOL      0.410403
    182 H87         3.1880    0.0210    3.2420 ho        1 MOL      0.410403
    183 O26         2.6820   -1.2700   -0.0250 oh        1 MOL     -0.854327
    184 H88         3.5720   -0.9270   -0.1150 ho        1 MOL      0.410403
    185 H89         2.5190   -1.7420   -0.8360 ho        1 MOL      0.410403
@<TRIPOS>BOND
     1    1    2 1   
     2    1    4 1   
     3    1    5 1   
     4    1    6 1   
     5    2    3 2   
     6    2    7 1   
     7    7    8 1   
     8    7   15 1   
     9    8    9 1   
    10    8   11 1   
    11    8   16 1   
    12    9   10 2   
    13    9   19 1   
    14   11   12 1   
    15   11   17 1   
    16   11   18 1   
    17   12   13 1   
    18   12   14 1   
    19   19   20 1   
    20   19   28 1   
    21   20   21 1   
    22   20   23 1   
    23   20   29 1   
    24   21   22 2   
    25   21   41 1   
    26   23   24 1   
    27   23   30 1   
    28   23   31 1   
    29   24   25 1   
    30   24   32 1   
    31   24   33 1   
    32   25   26 1   
    33   25   34 1   
    34   25   35 1   
    35   26   27 1   
    36   26   36 1   
    37   26   37 1   
    38   27   38 1   
    39   27   39 1   
    40   27   40 1   
    41   41   42 1   
    42   41   49 1   
    43   42   43 1   
    44   42   45 1   
    45   42   50 1   
    46   43   44 2   
    47   43   53 1   
    48   45   46 1   
    49   45   51 1   
    50   45   52 1   
    51   46   47 1   
    52   46   48 1   
    53   53   54 1   
    54   53   57 1   
    55   54   55 1   
    56   54   58 1   
    57   54   59 1   
    58   55   56 2   
    59   55   60 1   
    60   60   61 1   
    61   60   68 1   
    62   61   62 1   
    63   61   64 1   
    64   61   69 1   
    65   62   63 2   
    66   62   74 1   
    67   64   65 1   
    68   64   70 1   
    69   64   71 1   
    70   65   66 1   
    71   65   67 2   
    72   66   72 1   
    73   66   73 1   
    74   74   75 1   
    75   74   78 1   
    76   75   76 1   
    77   75   79 1   
    78   75   80 1   
    79   76   77 2   
    80   76   81 1   
    81   81   82 1   
    82   81   93 1   
    83   82   83 1   
    84   82   85 1   
    85   82   94 1   
    86   83   84 2   
    87   83  102 1   
    88   85   86 1   
    89   85   95 1   
    90   85   96 1   
    91   86   87 ar  
    92   86   88 ar  
    93   87   89 ar  
    94   87   97 1   
    95   88   90 ar  
    96   88   98 1   
    97   89   91 ar  
    98   89   99 1   
    99   90   91 ar  
   100   90  100 1   
   101   91   92 1   
   102   92  101 1   
   103  102  103 1   
   104  102  110 1   
   105  103  104 1   
   106  103  106 1   
   107  103  111 1   
   108  104  105 2   
   109  104  121 1   
   110  106  107 1   
   111  106  108 1   
   112  106  112 1   
   113  107  109 1   
   114  107  113 1   
   115  107  114 1   
   116  108  115 1   
   117  108  116 1   
   118  108  117 1   
   119  109  118 1   
   120  109  119 1   
   121  109  120 1   
   122  121  122 1   
   123  121  127 1   
   124  122  123 1   
   125  122  125 1   
   126  122  128 1   
   127  123  124 2   
   128  123  132 1   
   129  125  126 1   
   130  125  129 1   
   131  125  130 1   
   132  126  131 1   
   133  132  133 1   
   134  132  137 1   
   135  133  134 1   
   136  133  136 1   
   137  133  138 1   
   138  134  135 2   
   139  134  142 1   
   140  136  139 1   
   141  136  140 1   
   142  136  141 1   
   143  142  143 1   
   144  142  147 1   
   145  143  144 1   
   146  143  146 1   
   147  143  148 1   
   148  144  145 2   
   149  144  152 1   
   150  146  149 1   
   151  146  150 1   
   152  146  151 1   
   153  152  153 1   
   154  152  161 1   
   155  153  154 1   
   156  153  156 1   
   157  153  162 1   
   158  154  155 2   
   159  154  167 1   
   160  156  157 1   
   161  156  163 1   
   162  156  164 1   
   163  157  158 1   
   164  157  165 1   
   165  157  166 1   
   166  158  159 1   
   167  158  160 1   
   168  167  168 1   
   169  167  172 1   
   170  168  169 1   
   171  168  170 1   
   172  168  171 1   
   173  174  175 1   
   174  174  176 1   
   175  177  178 1   
   176  177  179 1   
   177  180  181 1   
   178  180  182 1   
   179  183  184 1   
   180  183  185 1   
@<TRIPOS>SUBSTRUCTURE
     1 MOL         1 TEMP              0 ****  ****    0 ROOT
