@<TRIPOS>MOLECULE
MOL
  188   182     1     0     0
SMALL
resp


@<TRIPOS>ATOM
      1 C1         -4.8750    1.0970    4.4260 c3        1 MOL     -0.399594
      2 C2         -5.2600    0.3100    3.1540 c         1 MOL      0.638346
      3 O1         -4.5750    0.3820    2.1690 o         1 MOL     -0.508477
      4 H1         -5.7050    1.0730    5.1330 hc        1 MOL      0.107439
      5 H2         -3.9970    0.6420    4.8840 hc        1 MOL      0.107439
      6 H3         -4.6530    2.1310    4.1610 hc        1 MOL      0.107439
      7 N1         -6.4870   -0.2650    3.1310 n         1 MOL     -0.397481
      8 C3         -7.0710   -1.0620    2.0210 c3        1 MOL     -0.112580
      9 C4         -6.9400   -0.3910    0.6030 c         1 MOL      0.584093
     10 O2         -6.8040   -0.9710   -0.4850 o         1 MOL     -0.552805
     11 C5         -6.7410   -2.5290    2.1380 c3        1 MOL     -0.095957
     12 C6         -7.0200   -3.1170    3.4880 c         1 MOL      0.598588
     13 O3         -6.3840   -4.1710    3.7230 o         1 MOL     -0.624686
     14 O4         -7.7420   -2.6230    4.4170 o         1 MOL     -0.624686
     15 H4         -6.9870   -0.1830    4.0110 hn        1 MOL      0.262866
     16 H5         -8.1300   -1.0760    2.3000 h1        1 MOL      0.042489
     17 H6         -5.6980   -2.6590    1.8550 hc        1 MOL      0.100057
     18 H7         -7.3200   -3.0830    1.4050 hc        1 MOL      0.100057
     19 N2         -7.1700    0.9180    0.6450 n         1 MOL     -0.486330
     20 C7         -7.0630    1.7580   -0.6060 c3        1 MOL      0.045061
     21 C8         -5.6540    2.2330   -0.9620 c         1 MOL      0.552707
     22 O5         -5.4880    2.9810   -1.8960 o         1 MOL     -0.611383
     23 C9         -8.0220    2.9630   -0.5450 c3        1 MOL     -0.038447
     24 C10        -9.4630    2.5790   -0.6530 c3        1 MOL     -0.018502
     25 C11       -10.4040    3.8200   -0.6600 c3        1 MOL      0.069546
     26 C12       -11.8660    3.3790   -0.6470 c3        1 MOL      0.022726
     27 N3        -12.6870    3.9350   -1.7290 n4        1 MOL     -0.251215
     28 H8         -7.2970    1.3530    1.5460 hn        1 MOL      0.268850
     29 H9         -7.3740    1.1440   -1.4460 h1        1 MOL      0.124239
     30 H10        -7.8290    3.6520   -1.3740 hc        1 MOL      0.022703
     31 H11        -7.9020    3.5310    0.3770 hc        1 MOL      0.022703
     32 H12        -9.7720    2.0960    0.2750 hc        1 MOL      0.017896
     33 H13        -9.6570    1.8930   -1.4890 hc        1 MOL      0.017896
     34 H14       -10.1530    4.4730   -1.4980 hc        1 MOL      0.008345
     35 H15       -10.2680    4.5410    0.1490 hc        1 MOL      0.008345
     36 H16       -12.3040    3.6080    0.3210 hx        1 MOL      0.069318
     37 H17       -11.7700    2.2990   -0.7400 hx        1 MOL      0.069318
     38 H18       -13.5690    3.4590   -1.8220 hn        1 MOL      0.252242
     39 H19       -12.8810    4.9250   -1.6580 hn        1 MOL      0.252242
     40 H20       -12.1760    3.7390   -2.5770 hn        1 MOL      0.252242
     41 N4         -4.6030    1.8500   -0.2920 n         1 MOL     -0.400595
     42 C13        -3.2330    2.3870   -0.5540 c3        1 MOL      0.087365
     43 C14        -2.8400    2.0110   -2.0180 c         1 MOL      0.567197
     44 O6         -2.9750    0.8420   -2.4600 o         1 MOL     -0.519152
     45 C15        -2.1020    1.8010    0.3870 c3        1 MOL     -0.102128
     46 C16        -0.8960    2.7460    0.3830 c         1 MOL      0.566037
     47 O7         -0.1590    2.8610    1.4160 o         1 MOL     -0.667417
     48 O8         -0.5950    3.3500   -0.6710 o         1 MOL     -0.667417
     49 H21        -4.7600    1.3810    0.5970 hn        1 MOL      0.240552
     50 H22        -3.2640    3.4760   -0.5040 h1        1 MOL     -0.002973
     51 H23        -1.8570    0.8220   -0.0320 hc        1 MOL      0.056144
     52 H24        -2.4770    1.7030    1.4020 hc        1 MOL      0.056144
     53 N5         -2.2590    3.0060   -2.6590 n         1 MOL     -0.249413
     54 C17        -1.6250    2.7590   -3.9440 c3        1 MOL     -0.378959
     55 C18        -0.4520    1.8320   -4.0020 c         1 MOL      0.579387
     56 O9         -0.1200    1.4270   -5.0960 o         1 MOL     -0.518796
     57 H25        -2.1130    3.9050   -2.2280 hn        1 MOL      0.214592
     58 H26        -1.2540    3.7170   -4.3200 h1        1 MOL      0.154830
     59 H27        -2.4310    2.3740   -4.5590 h1        1 MOL      0.154830
     60 N6          0.1430    1.5620   -2.8250 n         1 MOL     -0.361168
     61 C19         1.2300    0.5690   -2.6830 c3        1 MOL     -0.505710
     62 C20         0.6590   -0.9170   -2.8210 c         1 MOL      0.646216
     63 O10         1.3770   -1.8220   -3.1580 o         1 MOL     -0.461723
     64 C21         1.9820    0.7460   -1.3910 c3        1 MOL     -0.055704
     65 C22         2.7530    2.0620   -1.2740 c         1 MOL      0.645906
     66 N7          3.5220    2.4690   -2.2600 n         1 MOL     -0.454748
     67 O11         2.5850    2.8080   -0.3660 o         1 MOL     -0.725531
     68 H28        -0.2510    2.0110   -2.0050 hn        1 MOL      0.354355
     69 H29         1.9600    0.7530   -3.4770 h1        1 MOL      0.203747
     70 H30         2.6570   -0.0970   -1.3180 hc        1 MOL      0.114347
     71 H31         1.3120    0.7220   -0.5260 hc        1 MOL      0.114347
     72 H32         3.7300    1.8640   -3.0470 hn        1 MOL      0.251324
     73 H33         3.8450    3.4280   -2.2240 hn        1 MOL      0.251324
     74 N8         -0.6510   -1.1540   -2.6590 n         1 MOL     -0.323168
     75 C23        -1.3560   -2.4440   -2.6550 c3        1 MOL     -0.139128
     76 C24        -1.1920   -3.1830   -1.2890 c         1 MOL      0.526944
     77 O12        -1.1160   -2.4580   -0.3010 o         1 MOL     -0.506193
     78 H34        -1.1510   -0.3790   -2.2380 hn        1 MOL      0.286429
     79 H35        -0.8930   -3.1190   -3.3760 h1        1 MOL      0.098031
     80 H36        -2.4120   -2.2910   -2.8750 h1        1 MOL      0.098031
     81 N9         -1.2110   -4.4990   -1.1900 n         1 MOL     -0.534533
     82 C25        -0.8430   -5.3650   -0.0450 c3        1 MOL      0.086669
     83 C26         0.6420   -5.1570    0.2310 c         1 MOL      0.455056
     84 O13         1.5110   -5.8780   -0.2060 o         1 MOL     -0.536058
     85 C27        -1.8840   -5.2100    1.0910 c3        1 MOL     -0.273557
     86 C28        -3.3790   -5.2600    0.5610 ca        1 MOL      0.107594
     87 C29        -4.0460   -6.5280    0.6020 ca        1 MOL     -0.138950
     88 C30        -3.9300   -4.1610   -0.1230 ca        1 MOL     -0.138950
     89 C31        -5.3410   -6.6570    0.0170 ca        1 MOL     -0.236208
     90 C32        -5.1470   -4.3440   -0.7850 ca        1 MOL     -0.236208
     91 C33        -5.8790   -5.5300   -0.6990 ca        1 MOL      0.228960
     92 O14        -7.2070   -5.5720   -1.0850 oh        1 MOL     -0.473561
     93 H37        -1.3440   -4.9500   -2.0800 hn        1 MOL      0.333295
     94 H38        -0.9020   -6.3620   -0.4800 h1        1 MOL      0.102358
     95 H39        -1.7630   -4.3740    1.7880 hc        1 MOL      0.104002
     96 H40        -1.7390   -6.0720    1.7520 hc        1 MOL      0.104002
     97 H41        -3.5720   -7.3590    1.1010 ha        1 MOL      0.131833
     98 H42        -3.3610   -3.2580   -0.2770 ha        1 MOL      0.131833
     99 H43        -5.9180   -7.5520    0.1900 ha        1 MOL      0.162284
    100 H44        -5.5160   -3.5670   -1.4340 ha        1 MOL      0.162284
    101 H45        -7.4870   -4.6730   -1.2720 ho        1 MOL      0.360350
    102 N10         0.9680   -4.1250    1.0200 n         1 MOL     -0.243952
    103 C34         2.3010   -3.5780    1.3860 c3        1 MOL      0.023978
    104 C35         3.1240   -2.9720    0.2490 c         1 MOL      0.403658
    105 O15         3.6160   -1.8400    0.3410 o         1 MOL     -0.549401
    106 C36         3.2240   -4.5820    2.1780 c3        1 MOL      0.302808
    107 C37         2.4930   -5.3300    3.3400 c3        1 MOL     -0.132448
    108 C38         4.5020   -3.8910    2.7180 c3        1 MOL     -0.212957
    109 C39         1.7750   -4.2890    4.2780 c3        1 MOL     -0.220833
    110 H46         0.2720   -3.4030    1.1490 hn        1 MOL      0.235141
    111 H47         2.1760   -2.7180    2.0540 h1        1 MOL      0.057248
    112 H48         3.4700   -5.4500    1.5640 hc        1 MOL     -0.058407
    113 H49         3.2690   -5.7700    3.9750 hc        1 MOL      0.034511
    114 H50         1.7480   -6.0480    2.9760 hc        1 MOL      0.034511
    115 H51         4.4650   -2.8550    3.0260 hc        1 MOL      0.054653
    116 H52         4.9780   -4.5050    3.4880 hc        1 MOL      0.054653
    117 H53         5.2610   -3.9920    1.9470 hc        1 MOL      0.054653
    118 H54         0.9480   -3.9370    3.6570 hc        1 MOL      0.059359
    119 H55         1.2460   -4.8400    5.0640 hc        1 MOL      0.059359
    120 H56         2.4980   -3.5920    4.6920 hc        1 MOL      0.059359
    121 N11         3.2420   -3.7070   -0.8690 n         1 MOL     -0.348947
    122 C40         3.8920   -3.2990   -2.1310 c3        1 MOL     -0.066375
    123 C41         5.4610   -3.2770   -2.1340 c         1 MOL      0.458018
    124 O16         5.9810   -2.6830   -3.0790 o         1 MOL     -0.493323
    125 C42         3.3380   -4.1240   -3.3040 c3        1 MOL      0.208718
    126 O17         1.9010   -4.3350   -3.2200 oh        1 MOL     -0.635930
    127 H57         2.7440   -4.5840   -0.9110 hn        1 MOL      0.301118
    128 H58         3.5350   -2.2810   -2.2510 h1        1 MOL      0.066999
    129 H59         3.8810   -5.0570   -3.4160 h1        1 MOL      0.038582
    130 H60         3.5340   -3.5180   -4.1930 h1        1 MOL      0.038582
    131 H61         1.4950   -3.4660   -3.1600 ho        1 MOL      0.394425
    132 N12         6.1680   -3.8300   -1.1110 n         1 MOL     -0.524766
    133 C43         7.6220   -3.6370   -0.8730 c3        1 MOL      0.269870
    134 C44         8.0920   -2.1220   -0.8750 c         1 MOL      0.377226
    135 O18         9.2920   -1.9150   -0.7740 o         1 MOL     -0.534739
    136 C45         8.3750   -4.5500   -1.8240 c3        1 MOL     -0.128682
    137 H62         5.6520   -4.1810   -0.3080 hn        1 MOL      0.271048
    138 H63         7.9260   -4.0470    0.0980 h1        1 MOL      0.035755
    139 H64         9.4380   -4.5110   -1.5880 hc        1 MOL      0.041526
    140 H65         8.1540   -5.6160   -1.6940 hc        1 MOL      0.041526
    141 H66         8.2720   -4.2320   -2.8560 hc        1 MOL      0.041526
    142 N13         7.1730   -1.1760   -0.9090 n         1 MOL     -0.320991
    143 C46         7.4260    0.2770   -0.7730 c3        1 MOL      0.429685
    144 C47         6.9920    0.9460    0.5580 c         1 MOL      0.345775
    145 O19         6.1330    0.3960    1.2430 o         1 MOL     -0.459632
    146 C48         6.6270    0.9420   -1.9540 c3        1 MOL     -0.392819
    147 H67         6.2030   -1.4150   -0.8310 hn        1 MOL      0.173639
    148 H68         8.4920    0.4870   -0.8770 h1        1 MOL     -0.021174
    149 H69         6.6550    2.0350   -1.8610 hc        1 MOL      0.107520
    150 H70         7.0260    0.4860   -2.8510 hc        1 MOL      0.107520
    151 H71         5.5720    0.6840   -1.8630 hc        1 MOL      0.107520
    152 N14         7.5080    2.1290    0.8400 n         1 MOL     -0.550285
    153 C49         6.9990    3.0090    1.8640 c3        1 MOL     -0.160940
    154 C50         7.0810    2.5120    3.3150 c         1 MOL      0.359742
    155 O20         6.5300    3.1610    4.1930 o         1 MOL     -0.500518
    156 C51         5.6820    3.7180    1.5090 c3        1 MOL      0.075896
    157 C52         5.8510    4.4510    0.1440 c3        1 MOL      0.018497
    158 C53         4.8900    5.7210    0.1600 c         1 MOL      0.454751
    159 O21         5.4530    6.8100    0.3890 o         1 MOL     -0.622100
    160 O22         3.6130    5.6830    0.0380 o         1 MOL     -0.622100
    161 H72         8.2920    2.5250    0.3470 hn        1 MOL      0.334804
    162 H73         7.7090    3.8270    1.9860 h1        1 MOL      0.155228
    163 H74         5.4640    4.4370    2.2990 hc        1 MOL      0.086168
    164 H75         4.8970    2.9620    1.3680 hc        1 MOL      0.086168
    165 H76         5.7030    3.8290   -0.7380 hc        1 MOL     -0.029912
    166 H77         6.8840    4.8230    0.1850 hc        1 MOL     -0.029912
    167 N15         7.7170    1.3670    3.5480 n         1 MOL     -0.118357
    168 C54         7.7080    0.6790    4.7980 c3        1 MOL     -0.235113
    169 H78         6.6900    0.6390    5.1840 h1        1 MOL      0.096631
    170 H79         8.0830   -0.3360    4.6570 h1        1 MOL      0.096631
    171 H80         8.3450    1.2060    5.5080 h1        1 MOL      0.096631
    172 H81         8.2840    0.8930    2.8560 hn        1 MOL      0.229740
    173 Ca1         1.0810    5.0340    0.5070 Ca        1 MOL      1.701977
    174 O23         0.7100    5.8940    3.0080 oh        1 MOL     -0.828250
    175 H82         0.7990    6.7610    3.4080 ho        1 MOL      0.413883
    176 H83         0.8650    5.2880    3.7350 ho        1 MOL      0.413883
    177 O24         0.8670    5.8160   -2.1180 oh        1 MOL     -0.828250
    178 H84         0.8380    6.7370   -2.3690 ho        1 MOL      0.413883
    179 H85         0.9500    5.3410   -2.9400 ho        1 MOL      0.413883
    180 O25         1.3690    7.7080    0.8700 oh        1 MOL     -0.828250
    181 H86         0.8590    8.0310    1.6140 ho        1 MOL      0.413883
    182 H87         1.1760    8.3210    0.1660 ho        1 MOL      0.413883
    183 O26         2.6010    3.6120    2.4250 oh        1 MOL     -0.828250
    184 H88         2.9840    2.8180    2.0340 ho        1 MOL      0.413883
    185 H89         2.1050    3.2810    3.1770 ho        1 MOL      0.413883
    186 O27        -1.3950    6.0040    0.6590 oh        1 MOL     -0.828250
    187 H90        -1.8740    6.1750   -0.1490 ho        1 MOL      0.413883
    188 H91        -1.8280    6.5600    1.3150 ho        1 MOL      0.413883
@<TRIPOS>BOND
     1    1    2 1   
     2    1    4 1   
     3    1    5 1   
     4    1    6 1   
     5    2    3 2   
     6    2    7 1   
     7    7    8 1   
     8    7   15 1   
     9    8    9 1   
    10    8   11 1   
    11    8   16 1   
    12    9   10 2   
    13    9   19 1   
    14   11   12 1   
    15   11   17 1   
    16   11   18 1   
    17   12   13 1   
    18   12   14 1   
    19   19   20 1   
    20   19   28 1   
    21   20   21 1   
    22   20   23 1   
    23   20   29 1   
    24   21   22 2   
    25   21   41 1   
    26   23   24 1   
    27   23   30 1   
    28   23   31 1   
    29   24   25 1   
    30   24   32 1   
    31   24   33 1   
    32   25   26 1   
    33   25   34 1   
    34   25   35 1   
    35   26   27 1   
    36   26   36 1   
    37   26   37 1   
    38   27   38 1   
    39   27   39 1   
    40   27   40 1   
    41   41   42 1   
    42   41   49 1   
    43   42   43 1   
    44   42   45 1   
    45   42   50 1   
    46   43   44 2   
    47   43   53 1   
    48   45   46 1   
    49   45   51 1   
    50   45   52 1   
    51   46   47 1   
    52   46   48 1   
    53   53   54 1   
    54   53   57 1   
    55   54   55 1   
    56   54   58 1   
    57   54   59 1   
    58   55   56 2   
    59   55   60 1   
    60   60   61 1   
    61   60   68 1   
    62   61   62 1   
    63   61   64 1   
    64   61   69 1   
    65   62   63 2   
    66   62   74 1   
    67   64   65 1   
    68   64   70 1   
    69   64   71 1   
    70   65   66 1   
    71   65   67 2   
    72   66   72 1   
    73   66   73 1   
    74   74   75 1   
    75   74   78 1   
    76   75   76 1   
    77   75   79 1   
    78   75   80 1   
    79   76   77 2   
    80   76   81 1   
    81   81   82 1   
    82   81   93 1   
    83   82   83 1   
    84   82   85 1   
    85   82   94 1   
    86   83   84 2   
    87   83  102 1   
    88   85   86 1   
    89   85   95 1   
    90   85   96 1   
    91   86   87 ar  
    92   86   88 ar  
    93   87   89 ar  
    94   87   97 1   
    95   88   90 ar  
    96   88   98 1   
    97   89   91 ar  
    98   89   99 1   
    99   90   91 ar  
   100   90  100 1   
   101   91   92 1   
   102   92  101 1   
   103  102  103 1   
   104  102  110 1   
   105  103  104 1   
   106  103  106 1   
   107  103  111 1   
   108  104  105 2   
   109  104  121 1   
   110  106  107 1   
   111  106  108 1   
   112  106  112 1   
   113  107  109 1   
   114  107  113 1   
   115  107  114 1   
   116  108  115 1   
   117  108  116 1   
   118  108  117 1   
   119  109  118 1   
   120  109  119 1   
   121  109  120 1   
   122  121  122 1   
   123  121  127 1   
   124  122  123 1   
   125  122  125 1   
   126  122  128 1   
   127  123  124 2   
   128  123  132 1   
   129  125  126 1   
   130  125  129 1   
   131  125  130 1   
   132  126  131 1   
   133  132  133 1   
   134  132  137 1   
   135  133  134 1   
   136  133  136 1   
   137  133  138 1   
   138  134  135 2   
   139  134  142 1   
   140  136  139 1   
   141  136  140 1   
   142  136  141 1   
   143  142  143 1   
   144  142  147 1   
   145  143  144 1   
   146  143  146 1   
   147  143  148 1   
   148  144  145 2   
   149  144  152 1   
   150  146  149 1   
   151  146  150 1   
   152  146  151 1   
   153  152  153 1   
   154  152  161 1   
   155  153  154 1   
   156  153  156 1   
   157  153  162 1   
   158  154  155 2   
   159  154  167 1   
   160  156  157 1   
   161  156  163 1   
   162  156  164 1   
   163  157  158 1   
   164  157  165 1   
   165  157  166 1   
   166  158  159 1   
   167  158  160 1   
   168  167  168 1   
   169  167  172 1   
   170  168  169 1   
   171  168  170 1   
   172  168  171 1   
   173  174  175 1   
   174  174  176 1   
   175  177  178 1   
   176  177  179 1   
   177  180  181 1   
   178  180  182 1   
   179  183  184 1   
   180  183  185 1   
   181  186  187 1   
   182  186  188 1   
@<TRIPOS>SUBSTRUCTURE
     1 MOL         1 TEMP              0 ****  ****    0 ROOT
