@<TRIPOS>MOLECULE
MOL
  181   177     1     0     0
SMALL
resp


@<TRIPOS>ATOM
      1 C1        -10.2330    7.0120    1.4830 c3        1 MOL     -0.316187
      2 C2         -9.2670    6.2730    0.5440 c         1 MOL      0.610441
      3 O1         -8.5960    6.8890   -0.2950 o         1 MOL     -0.573120
      4 H1        -11.0850    6.3690    1.7050 hc        1 MOL      0.079545
      5 H2         -9.7180    7.2650    2.4100 hc        1 MOL      0.079545
      6 H3        -10.5820    7.9240    1.0000 hc        1 MOL      0.079545
      7 N1         -9.1860    4.9330    0.5740 n         1 MOL     -0.486237
      8 C3         -9.9260    3.9910    1.3730 c3        1 MOL      0.245687
      9 C4        -10.5760    2.9580    0.4060 c         1 MOL      0.396517
     10 O2        -10.9840    1.9120    0.8690 o         1 MOL     -0.512143
     11 C5         -9.0380    3.4670    2.5240 c3        1 MOL     -0.462694
     12 C6         -7.9400    2.5450    2.0400 c         1 MOL      0.737387
     13 O3         -7.0750    2.0450    2.8340 o         1 MOL     -0.713961
     14 O4         -7.7310    2.2950    0.8390 o         1 MOL     -0.713961
     15 H4         -8.5830    4.5240   -0.1340 hn        1 MOL      0.330388
     16 H5        -10.8010    4.4710    1.8180 h1        1 MOL      0.054343
     17 H6         -9.6790    3.1420    3.3510 hc        1 MOL      0.136897
     18 H7         -8.4660    4.3420    2.8420 hc        1 MOL      0.136897
     19 N2        -10.6140    3.1550   -0.9430 n         1 MOL     -0.486769
     20 C7        -11.2730    2.2990   -1.8610 c3        1 MOL      0.284759
     21 C8        -10.4940    1.0710   -2.3820 c         1 MOL      0.391894
     22 O5        -11.0760    0.3460   -3.1880 o         1 MOL     -0.568420
     23 C9        -12.0030    3.0630   -2.9810 c3        1 MOL     -0.266719
     24 H8        -10.2060    4.0090   -1.3130 hn        1 MOL      0.270672
     25 H9        -12.0770    1.7950   -1.3300 h1        1 MOL      0.038855
     26 H10       -12.7560    2.5270   -3.5670 hc        1 MOL      0.068157
     27 H11       -12.4920    3.9250   -2.5280 hc        1 MOL      0.068157
     28 H12       -11.2140    3.4500   -3.6180 hc        1 MOL      0.068157
     29 N3         -9.2880    0.8440   -1.9020 n         1 MOL     -0.120995
     30 C10        -8.6120   -0.4470   -2.1440 c3        1 MOL      0.014000
     31 C11        -8.4020   -1.2120   -0.8500 c         1 MOL      0.383357
     32 O6         -8.3100   -0.6900    0.2840 o         1 MOL     -0.448776
     33 C12        -7.3430   -0.1940   -3.0030 c3        1 MOL     -0.256538
     34 C13        -6.6950    1.0900   -2.5180 c         1 MOL      0.742965
     35 O7         -6.6480    2.1580   -3.1780 o         1 MOL     -0.693057
     36 O8         -6.0520    0.9870   -1.4490 o         1 MOL     -0.693057
     37 H13        -9.0440    1.3260   -1.0430 hn        1 MOL      0.148545
     38 H14        -9.2090   -1.0220   -2.8570 h1        1 MOL      0.068570
     39 H15        -7.5890   -0.1670   -4.0550 hc        1 MOL      0.059649
     40 H16        -6.6680   -1.0240   -2.7970 hc        1 MOL      0.059649
     41 N4         -8.1120   -2.4590   -0.9510 n         1 MOL     -0.397217
     42 C14        -7.9410   -3.4400    0.1780 c3        1 MOL     -0.056611
     43 C15        -6.5930   -3.3540    0.8950 c         1 MOL      0.608201
     44 O9         -5.9240   -2.3040    0.7570 o         1 MOL     -0.524383
     45 H17        -7.9350   -2.8090   -1.8800 hn        1 MOL      0.302749
     46 H18        -8.0070   -4.4010   -0.3380 h1        1 MOL      0.083014
     47 H19        -8.7380   -3.4950    0.9270 h1        1 MOL      0.083014
     48 N5         -6.1740   -4.3720    1.7350 n         1 MOL     -0.742286
     49 C16        -4.9530   -4.1810    2.5370 c3        1 MOL      0.356509
     50 C17        -3.6460   -3.9960    1.8050 c         1 MOL      0.316054
     51 O10        -2.8450   -3.2130    2.3050 o         1 MOL     -0.513909
     52 C18        -4.8860   -5.4640    3.3810 c3        1 MOL     -0.267214
     53 C19        -4.2100   -5.2280    4.7430 c         1 MOL      0.661031
     54 N6         -3.1540   -4.4390    4.8510 n         1 MOL     -0.828369
     55 O11        -4.6160   -5.8100    5.7480 o         1 MOL     -0.573020
     56 H20        -6.7860   -5.1480    1.9510 hn        1 MOL      0.356583
     57 H21        -5.0940   -3.3430    3.2070 h1        1 MOL      0.067491
     58 H22        -4.3020   -6.2220    2.8570 hc        1 MOL      0.069617
     59 H23        -5.8740   -5.8570    3.5720 hc        1 MOL      0.069617
     60 H24        -2.8530   -4.1300    3.9420 hn        1 MOL      0.402082
     61 H25        -2.5590   -4.5700    5.6610 hn        1 MOL      0.402082
     62 N7         -3.4140   -4.5550    0.5830 n         1 MOL     -0.420674
     63 C20        -2.0960   -4.4500   -0.0870 c3        1 MOL      0.013139
     64 C21        -1.7790   -3.2250   -1.0240 c         1 MOL      0.565194
     65 O12        -2.6020   -2.2580   -1.1380 o         1 MOL     -0.580826
     66 H26        -4.1450   -5.0680    0.1080 hn        1 MOL      0.315976
     67 H27        -1.9900   -5.3510   -0.6930 h1        1 MOL      0.099638
     68 H28        -1.3480   -4.5120    0.6970 h1        1 MOL      0.099638
     69 N8         -0.6710   -3.1480   -1.7420 n         1 MOL     -0.375148
     70 C22         0.3780   -4.1610   -1.7870 c3        1 MOL     -0.195066
     71 C23         1.7850   -3.5670   -1.8410 c         1 MOL      0.618539
     72 O13         2.7330   -4.3300   -1.8840 o         1 MOL     -0.563521
     73 C24         0.2900   -4.9590   -3.1720 c3        1 MOL      0.424092
     74 C25        -1.0470   -5.7060   -3.2500 c3        1 MOL     -0.417042
     75 O14         0.2490   -4.1060   -4.2790 oh        1 MOL     -0.519688
     76 H29        -0.7200   -2.4220   -2.4480 hn        1 MOL      0.304283
     77 H30         0.2120   -4.9080   -1.0130 h1        1 MOL      0.102580
     78 H31         1.1380   -5.6440   -3.3020 h1        1 MOL      0.053598
     79 H32        -0.4590   -3.5200   -3.9730 ho        1 MOL      0.330915
     80 H33        -1.1860   -6.3200   -2.3560 hc        1 MOL      0.084280
     81 H34        -1.7860   -4.9320   -3.4440 hc        1 MOL      0.084280
     82 H35        -1.0610   -6.4900   -4.0060 hc        1 MOL      0.084280
     83 N9          1.9880   -2.2480   -1.9260 n         1 MOL     -0.452464
     84 C26         3.2030   -1.5050   -2.0520 c3        1 MOL      0.100180
     85 C27         3.3720   -0.5280   -0.8840 c         1 MOL      0.558466
     86 O15         2.5340    0.3270   -0.7800 o         1 MOL     -0.540819
     87 C28         3.2280   -0.6330   -3.3580 c3        1 MOL      0.101384
     88 C29         3.0220   -1.5070   -4.6450 c3        1 MOL     -0.074515
     89 C30         4.5230    0.2410   -3.5590 c3        1 MOL     -0.122451
     90 C31         4.0530   -2.5490   -4.9170 c3        1 MOL      0.038232
     91 H36         1.1430   -1.7050   -1.8050 hn        1 MOL      0.224818
     92 H37         4.0630   -2.1710   -2.1760 h1        1 MOL      0.106127
     93 H38         2.3570    0.0180   -3.2500 hc        1 MOL      0.028622
     94 H39         2.8920   -0.8990   -5.5330 hc        1 MOL     -0.005302
     95 H40         2.1050   -2.1110   -4.6450 hc        1 MOL     -0.005302
     96 H41         4.6950    0.9120   -2.7230 hc        1 MOL      0.034021
     97 H42         5.3910   -0.3780   -3.8040 hc        1 MOL      0.034021
     98 H43         4.3270    0.9340   -4.3740 hc        1 MOL      0.034021
     99 H44         3.9880   -3.2170   -4.0550 hc        1 MOL     -0.020402
    100 H45         3.9640   -3.1060   -5.8520 hc        1 MOL     -0.020402
    101 H46         5.0820   -2.1790   -4.9560 hc        1 MOL     -0.020402
    102 N10         4.4570   -0.6160   -0.0500 n         1 MOL     -0.545317
    103 C32         5.6430   -1.4310   -0.2420 c3        1 MOL      0.169747
    104 C33         6.9340   -0.7970    0.3220 c         1 MOL      0.476281
    105 O16         6.8360   -0.1750    1.3400 o         1 MOL     -0.477972
    106 C34         5.3930   -2.9190    0.1590 c3        1 MOL     -0.031665
    107 C35         4.6620   -3.2030    1.4700 c         1 MOL      0.681209
    108 O17         5.2670   -3.0020    2.5380 o         1 MOL     -0.717380
    109 O18         3.5110   -3.6620    1.5000 o         1 MOL     -0.717380
    110 H47         4.3820   -0.0690    0.7920 hn        1 MOL      0.341343
    111 H48         5.8450   -1.5390   -1.3000 h1        1 MOL     -0.037541
    112 H49         6.3710   -3.3950    0.1130 hc        1 MOL     -0.030594
    113 H50         4.8480   -3.5170   -0.5700 hc        1 MOL     -0.030594
    114 N11         8.0720   -1.0610   -0.3640 n         1 MOL     -0.575815
    115 C36         9.3800   -0.6570    0.1480 c3        1 MOL      0.484172
    116 C37         9.9790    0.5170   -0.6340 c         1 MOL      0.146110
    117 O19        10.3130    0.3350   -1.8320 o         1 MOL     -0.504336
    118 C38        10.2470   -1.8530    0.3670 c3        1 MOL     -0.229655
    119 C39        11.7310   -1.4270    0.6540 ca        1 MOL      0.086461
    120 C40        12.6080   -1.0980   -0.3580 ca        1 MOL     -0.112111
    121 C41        12.1660   -1.5970    1.9450 ca        1 MOL     -0.112111
    122 C42        13.9490   -0.9720   -0.1190 ca        1 MOL     -0.143976
    123 C43        13.5600   -1.5880    2.2070 ca        1 MOL     -0.143976
    124 C44        14.4440   -1.3200    1.1670 ca        1 MOL     -0.116377
    125 H51         8.0320   -1.5340   -1.2630 hn        1 MOL      0.318009
    126 H52         9.2920   -0.3100    1.1730 h1        1 MOL      0.015584
    127 H53        10.1650   -2.4450   -0.5570 hc        1 MOL      0.062760
    128 H54         9.8080   -2.4640    1.1550 hc        1 MOL      0.062760
    129 H55        12.2300   -1.1410   -1.3730 ha        1 MOL      0.113488
    130 H56        11.4140   -1.8940    2.6600 ha        1 MOL      0.113488
    131 H57        14.5620   -0.7310   -0.9700 ha        1 MOL      0.106971
    132 H58        13.9400   -2.0290    3.1200 ha        1 MOL      0.106971
    133 H59        15.5110   -1.3980    1.3180 ha        1 MOL      0.095492
    134 N12        10.2760    1.6860   -0.0610 n         1 MOL      0.115130
    135 C45        10.0570    2.1080    1.2590 c3        1 MOL      0.003843
    136 C46         8.6970    2.7320    1.5260 c         1 MOL      0.465150
    137 O20         8.3130    2.7640    2.7110 o         1 MOL     -0.521878
    138 C47        11.2090    3.1080    1.5020 c3        1 MOL     -0.102056
    139 C48        11.2530    3.8480    0.1400 c3        1 MOL      0.128691
    140 C49        10.9080    2.7260   -0.8480 c3        1 MOL     -0.389231
    141 H60        10.2050    1.3090    1.9810 h1        1 MOL      0.016603
    142 H61        10.9450    3.7800    2.3290 hc        1 MOL      0.041114
    143 H62        12.1530    2.5970    1.6630 hc        1 MOL      0.041114
    144 H63        10.4500    4.5840    0.1300 hc        1 MOL     -0.005175
    145 H64        12.2050    4.3660   -0.0070 hc        1 MOL     -0.005175
    146 H65        10.4160    3.1790   -1.7110 h1        1 MOL      0.143075
    147 H66        11.8320    2.2570   -1.1640 h1        1 MOL      0.143075
    148 N13         7.9970    3.2730    0.5010 n         1 MOL     -0.460209
    149 C50         6.7710    4.1040    0.7270 c3        1 MOL      0.105391
    150 C51         7.2830    5.4010    1.4900 c         1 MOL      0.462544
    151 O21         7.8430    6.3310    0.9090 o         1 MOL     -0.583605
    152 C52         6.1430    4.4790   -0.6210 c3        1 MOL     -0.100045
    153 C53         5.4660    3.3750   -1.3690 c3        1 MOL      0.010377
    154 C54         4.6930    3.8110   -2.6540 c         1 MOL      0.701677
    155 O22         5.3830    3.7440   -3.7320 o         1 MOL     -0.718132
    156 O23         3.4840    4.2340   -2.6540 o         1 MOL     -0.718132
    157 H67         8.4470    3.2500   -0.3980 hn        1 MOL      0.376008
    158 H68         6.1210    3.4740    1.3340 h1        1 MOL      0.122121
    159 H69         6.8990    4.9410   -1.2590 hc        1 MOL      0.027165
    160 H70         5.3560    5.1640   -0.3330 hc        1 MOL      0.027165
    161 H71         4.7240    2.9700   -0.6830 hc        1 MOL     -0.051609
    162 H72         6.2790    2.6640   -1.4860 hc        1 MOL     -0.051609
    163 N14         7.0980    5.6560    2.7870 n         1 MOL     -0.318399
    164 C55         6.3790    4.7910    3.7730 c3        1 MOL     -0.138608
    165 H73         5.7730    4.0580    3.2400 h1        1 MOL      0.075183
    166 H74         7.1040    4.2740    4.4000 h1        1 MOL      0.075183
    167 H75         5.7330    5.4100    4.3970 h1        1 MOL      0.075183
    168 H76         7.3830    6.5760    3.1040 hn        1 MOL      0.266653
    169 Ca1        -5.9370    0.4170    1.2230 Ca        1 MOL      1.716936
    170 O24        -4.2840    2.3510    0.4160 oh        1 MOL     -0.833069
    171 H77        -3.3310    2.4520    0.4350 ho        1 MOL      0.409929
    172 H78        -4.5330    2.6060   -0.4800 ho        1 MOL      0.409929
    173 O25        -4.2750    0.1780    3.3490 oh        1 MOL     -0.833069
    174 H79        -4.0500    0.9480    3.8720 ho        1 MOL      0.409929
    175 H80        -3.5130   -0.3940    3.4230 ho        1 MOL      0.409929
    176 O26        -7.1020   -0.9830    3.2670 oh        1 MOL     -0.833069
    177 H81        -6.6470   -1.5180    3.9190 ho        1 MOL      0.409929
    178 H82        -8.0190   -1.2510    3.3290 ho        1 MOL      0.409929
    179 O27        -3.5350   -0.5330    0.5710 oh        1 MOL     -0.833069
    180 H83        -3.2070   -1.1000   -0.1200 ho        1 MOL      0.409929
    181 H84        -2.8380   -0.5240    1.2280 ho        1 MOL      0.409929
@<TRIPOS>BOND
     1    1    2 1   
     2    1    4 1   
     3    1    5 1   
     4    1    6 1   
     5    2    3 2   
     6    2    7 1   
     7    7    8 1   
     8    7   15 1   
     9    8    9 1   
    10    8   11 1   
    11    8   16 1   
    12    9   10 2   
    13    9   19 1   
    14   11   12 1   
    15   11   17 1   
    16   11   18 1   
    17   12   13 1   
    18   12   14 1   
    19   19   20 1   
    20   19   24 1   
    21   20   21 1   
    22   20   23 1   
    23   20   25 1   
    24   21   22 2   
    25   21   29 1   
    26   23   26 1   
    27   23   27 1   
    28   23   28 1   
    29   29   30 1   
    30   29   37 1   
    31   30   31 1   
    32   30   33 1   
    33   30   38 1   
    34   31   32 2   
    35   31   41 1   
    36   33   34 1   
    37   33   39 1   
    38   33   40 1   
    39   34   35 1   
    40   34   36 1   
    41   41   42 1   
    42   41   45 1   
    43   42   43 1   
    44   42   46 1   
    45   42   47 1   
    46   43   44 2   
    47   43   48 1   
    48   48   49 1   
    49   48   56 1   
    50   49   50 1   
    51   49   52 1   
    52   49   57 1   
    53   50   51 2   
    54   50   62 1   
    55   52   53 1   
    56   52   58 1   
    57   52   59 1   
    58   53   54 1   
    59   53   55 2   
    60   54   60 1   
    61   54   61 1   
    62   62   63 1   
    63   62   66 1   
    64   63   64 1   
    65   63   67 1   
    66   63   68 1   
    67   64   65 2   
    68   64   69 1   
    69   69   70 1   
    70   69   76 1   
    71   70   71 1   
    72   70   73 1   
    73   70   77 1   
    74   71   72 2   
    75   71   83 1   
    76   73   74 1   
    77   73   75 1   
    78   73   78 1   
    79   74   80 1   
    80   74   81 1   
    81   74   82 1   
    82   75   79 1   
    83   83   84 1   
    84   83   91 1   
    85   84   85 1   
    86   84   87 1   
    87   84   92 1   
    88   85   86 2   
    89   85  102 1   
    90   87   88 1   
    91   87   89 1   
    92   87   93 1   
    93   88   90 1   
    94   88   94 1   
    95   88   95 1   
    96   89   96 1   
    97   89   97 1   
    98   89   98 1   
    99   90   99 1   
   100   90  100 1   
   101   90  101 1   
   102  102  103 1   
   103  102  110 1   
   104  103  104 1   
   105  103  106 1   
   106  103  111 1   
   107  104  105 2   
   108  104  114 1   
   109  106  107 1   
   110  106  112 1   
   111  106  113 1   
   112  107  108 1   
   113  107  109 1   
   114  114  115 1   
   115  114  125 1   
   116  115  116 1   
   117  115  118 1   
   118  115  126 1   
   119  116  117 2   
   120  116  134 1   
   121  118  119 1   
   122  118  127 1   
   123  118  128 1   
   124  119  120 ar  
   125  119  121 ar  
   126  120  122 ar  
   127  120  129 1   
   128  121  123 ar  
   129  121  130 1   
   130  122  124 ar  
   131  122  131 1   
   132  123  124 ar  
   133  123  132 1   
   134  124  133 1   
   135  134  135 1   
   136  134  140 1   
   137  135  136 1   
   138  135  138 1   
   139  135  141 1   
   140  136  137 2   
   141  136  148 1   
   142  138  139 1   
   143  138  142 1   
   144  138  143 1   
   145  139  140 1   
   146  139  144 1   
   147  139  145 1   
   148  140  146 1   
   149  140  147 1   
   150  148  149 1   
   151  148  157 1   
   152  149  150 1   
   153  149  152 1   
   154  149  158 1   
   155  150  151 2   
   156  150  163 1   
   157  152  153 1   
   158  152  159 1   
   159  152  160 1   
   160  153  154 1   
   161  153  161 1   
   162  153  162 1   
   163  154  155 1   
   164  154  156 1   
   165  163  164 1   
   166  163  168 1   
   167  164  165 1   
   168  164  166 1   
   169  164  167 1   
   170  170  171 1   
   171  170  172 1   
   172  173  174 1   
   173  173  175 1   
   174  176  177 1   
   175  176  178 1   
   176  179  180 1   
   177  179  181 1   
@<TRIPOS>SUBSTRUCTURE
     1 MOL         1 TEMP              0 ****  ****    0 ROOT
