@<TRIPOS>MOLECULE
MOL
  185   180     1     0     0
SMALL
resp


@<TRIPOS>ATOM
      1 C1         -5.7800    2.1190   -4.0860 c3        1 MOL     -0.459457
      2 C2         -6.3830    1.7680   -2.6870 c         1 MOL      0.589946
      3 O1         -5.7230    1.3110   -1.7130 o         1 MOL     -0.488371
      4 H1         -4.8740    2.7100   -3.9520 hc        1 MOL      0.134332
      5 H2         -5.5370    1.1990   -4.6190 hc        1 MOL      0.134332
      6 H3         -6.5060    2.6930   -4.6620 hc        1 MOL      0.134332
      7 N1         -7.7000    1.9050   -2.5400 n         1 MOL     -0.504602
      8 C3         -8.3740    1.9820   -1.2010 c3        1 MOL      0.263338
      9 C4         -8.1960    0.8370   -0.1620 c         1 MOL      0.551867
     10 O2         -8.3020    1.0250    1.0750 o         1 MOL     -0.503666
     11 C5         -8.2260    3.3830   -0.5080 c3        1 MOL     -0.314366
     12 C6         -7.9010    4.6320   -1.3970 c         1 MOL      0.827302
     13 O3         -7.0860    5.5220   -1.0640 o         1 MOL     -0.681991
     14 O4         -8.5180    4.7800   -2.4390 o         1 MOL     -0.681991
     15 H4         -8.3170    2.0460   -3.3310 hn        1 MOL      0.295462
     16 H5         -9.4390    1.9020   -1.4250 h1        1 MOL      0.027505
     17 H6         -7.4370    3.3870    0.2560 hc        1 MOL      0.057459
     18 H7         -9.1560    3.6150   -0.0030 hc        1 MOL      0.057459
     19 N2         -8.0200   -0.3480   -0.7210 n         1 MOL     -0.784645
     20 C7         -8.0850   -1.6260   -0.0300 c3        1 MOL      0.544187
     21 C8         -6.6870   -2.0870    0.4790 c         1 MOL      0.450037
     22 O5         -6.5580   -3.0410    1.2270 o         1 MOL     -0.554805
     23 C9         -8.7590   -2.6800   -0.9190 c3        1 MOL     -0.200498
     24 C10        -9.4210   -3.6690   -0.0780 c3        1 MOL      0.001422
     25 C11        -9.7420   -5.0750   -0.7190 c3        1 MOL     -0.071066
     26 C12       -10.6100   -5.9340    0.2680 c3        1 MOL      0.000904
     27 N3        -11.2840   -7.0140   -0.4570 n4        1 MOL     -0.147602
     28 H8         -7.8600   -0.4870   -1.7090 hn        1 MOL      0.278390
     29 H9         -8.6110   -1.5000    0.9230 h1        1 MOL     -0.032254
     30 H10        -8.0310   -2.9940   -1.6590 hc        1 MOL      0.050027
     31 H11        -9.6150   -2.2750   -1.4720 hc        1 MOL      0.050027
     32 H12       -10.2940   -3.1170    0.2530 hc        1 MOL      0.030142
     33 H13        -8.7650   -3.9370    0.7550 hc        1 MOL      0.030142
     34 H14        -8.8310   -5.6180   -0.9330 hc        1 MOL      0.048376
     35 H15       -10.3900   -4.9020   -1.5860 hc        1 MOL      0.048376
     36 H16       -11.3790   -5.3340    0.7470 hx        1 MOL      0.084304
     37 H17        -9.8960   -6.4140    0.9420 hx        1 MOL      0.084304
     38 H18       -11.7560   -7.6480    0.1770 hn        1 MOL      0.235962
     39 H19       -12.0170   -6.6980   -1.0660 hn        1 MOL      0.235962
     40 H20       -10.6340   -7.5910   -0.9770 hn        1 MOL      0.235962
     41 N4         -5.6100   -1.4100    0.0190 n         1 MOL     -0.389342
     42 C13        -4.1740   -1.7480    0.1980 c3        1 MOL      0.002163
     43 C14        -3.8760   -1.8090    1.7300 c         1 MOL      0.490824
     44 O6         -4.1640   -0.8490    2.4960 o         1 MOL     -0.440014
     45 C15        -3.2980   -0.7010   -0.4530 c3        1 MOL     -0.167071
     46 C16        -1.8650   -1.1110   -0.5430 c         1 MOL      0.671544
     47 O7         -1.5210   -2.1220   -1.2300 o         1 MOL     -0.686932
     48 O8         -0.9610   -0.4830    0.0780 o         1 MOL     -0.686932
     49 H21        -5.7410   -0.6010   -0.5660 hn        1 MOL      0.278838
     50 H22        -3.9900   -2.7140   -0.2610 h1        1 MOL      0.032145
     51 H23        -3.5040    0.2110    0.1180 hc        1 MOL      0.073645
     52 H24        -3.7150   -0.5620   -1.4500 hc        1 MOL      0.073645
     53 N5         -3.4430   -3.0320    2.1590 n         1 MOL     -0.140571
     54 C17        -3.1860   -3.4140    3.5560 c3        1 MOL     -0.287640
     55 C18        -2.3500   -2.3670    4.2520 c         1 MOL      0.624579
     56 O9         -2.5510   -1.9910    5.4110 o         1 MOL     -0.560475
     57 H25        -3.4670   -3.7320    1.4340 hn        1 MOL      0.225914
     58 H26        -2.7090   -4.3750    3.7710 h1        1 MOL      0.125647
     59 H27        -4.1720   -3.3670    4.0170 h1        1 MOL      0.125647
     60 N6         -1.3400   -1.7780    3.5540 n         1 MOL     -0.509400
     61 C19        -0.4110   -0.7260    4.1660 c3        1 MOL      0.215972
     62 C20        -0.6910    0.7390    3.7520 c         1 MOL      0.368862
     63 O10         0.0790    1.6770    3.9970 o         1 MOL     -0.537593
     64 C21         1.0450   -1.2510    4.1410 c3        1 MOL     -0.326618
     65 C22         1.8590   -0.7720    2.9800 c         1 MOL      0.747032
     66 N7          2.9400   -0.0260    3.2960 n         1 MOL     -0.728338
     67 O11         1.6180   -1.0070    1.8280 o         1 MOL     -0.734529
     68 H28        -1.3190   -1.9920    2.5730 hn        1 MOL      0.247774
     69 H29        -0.6060   -0.5440    5.2230 h1        1 MOL      0.097386
     70 H30         1.1520   -2.3380    4.2320 hc        1 MOL      0.103044
     71 H31         1.5040   -0.9500    5.0830 hc        1 MOL      0.103044
     72 H32         3.2380    0.0380    4.2600 hn        1 MOL      0.338983
     73 H33         3.5230    0.1430    2.4970 hn        1 MOL      0.338983
     74 N8         -1.8140    1.0130    3.0540 n         1 MOL     -0.025790
     75 C23        -2.2200    2.3090    2.6410 c3        1 MOL     -0.272938
     76 C24        -1.2630    3.0910    1.7520 c         1 MOL      0.572102
     77 O12        -1.0350    4.2950    1.8620 o         1 MOL     -0.561961
     78 H34        -2.4510    0.2430    2.8860 hn        1 MOL      0.064300
     79 H35        -2.4720    2.9120    3.5140 h1        1 MOL      0.129936
     80 H36        -3.1370    2.1840    2.0710 h1        1 MOL      0.129936
     81 N9         -0.7010    2.3860    0.7830 n         1 MOL     -0.339865
     82 C25         0.2320    2.8730   -0.2300 c3        1 MOL     -0.012130
     83 C26         1.5280    2.1110   -0.4120 c         1 MOL      0.671118
     84 O13         1.4960    0.8670   -0.4330 o         1 MOL     -0.494385
     85 C27        -0.5720    2.9310   -1.5790 c3        1 MOL     -0.005990
     86 C28        -1.7520    3.8790   -1.5620 ca        1 MOL     -0.077932
     87 C29        -1.4610    5.2210   -1.7210 ca        1 MOL     -0.157941
     88 C30        -3.0230    3.4600   -1.1330 ca        1 MOL     -0.157941
     89 C31        -2.4100    6.2000   -1.4940 ca        1 MOL     -0.189298
     90 C32        -4.0280    4.4270   -0.8540 ca        1 MOL     -0.189298
     91 C33        -3.6910    5.8220   -1.0360 ca        1 MOL      0.374303
     92 O14        -4.6820    6.6960   -0.7500 oh        1 MOL     -0.547536
     93 H37        -0.8400    1.3850    0.8330 hn        1 MOL      0.246726
     94 H38         0.4580    3.8920    0.0570 h1        1 MOL      0.088497
     95 H39        -0.8650    1.9850   -2.0170 hc        1 MOL      0.021522
     96 H40         0.0140    3.4490   -2.3390 hc        1 MOL      0.021522
     97 H41        -0.4750    5.6220   -1.9390 ha        1 MOL      0.107304
     98 H42        -3.1970    2.3910   -1.0760 ha        1 MOL      0.107304
     99 H43        -2.2370    7.2320   -1.7490 ha        1 MOL      0.111823
    100 H44        -5.0330    4.1240   -0.5940 ha        1 MOL      0.111823
    101 H45        -5.5070    6.2930   -0.4680 ho        1 MOL      0.407743
    102 N10         2.6300    2.8340   -0.5410 n         1 MOL     -0.681993
    103 C34         3.9320    2.3110   -0.8810 c3        1 MOL     -0.006859
    104 C35         4.5320    1.8720    0.3860 c         1 MOL      0.475512
    105 O15         4.8340    0.7250    0.6300 o         1 MOL     -0.352722
    106 C36         4.6640    3.3100   -1.7540 c3        1 MOL     -0.051488
    107 C37         3.7720    3.8540   -2.9630 c3        1 MOL      0.138786
    108 C38         5.9660    2.6190   -2.2740 c3        1 MOL     -0.402418
    109 C39         3.2260    2.7490   -3.8330 c3        1 MOL     -0.247388
    110 H46         2.5810    3.8360   -0.4300 hn        1 MOL      0.337320
    111 H47         3.7630    1.4610   -1.5530 h1        1 MOL      0.097407
    112 H48         4.9180    4.1690   -1.1440 hc        1 MOL      0.019896
    113 H49         4.3830    4.4870   -3.6080 hc        1 MOL     -0.003437
    114 H50         2.9410    4.4360   -2.5680 hc        1 MOL     -0.003437
    115 H51         5.8410    1.5990   -2.6330 hc        1 MOL      0.119178
    116 H52         6.3930    3.2060   -3.0860 hc        1 MOL      0.119178
    117 H53         6.7610    2.6030   -1.5180 hc        1 MOL      0.119178
    118 H54         2.7070    3.2950   -4.6280 hc        1 MOL      0.078898
    119 H55         4.0370    2.1100   -4.1950 hc        1 MOL      0.078898
    120 H56         2.5230    2.1740   -3.2340 hc        1 MOL      0.078898
    121 N11         4.9710    2.8190    1.1610 n         1 MOL     -0.293525
    122 C40         5.7090    2.6640    2.3930 c3        1 MOL     -0.165813
    123 C41         7.0110    1.9500    2.3310 c         1 MOL      0.395655
    124 O16         7.2190    1.0350    3.0800 o         1 MOL     -0.439497
    125 C42         5.8070    4.0620    3.1080 c3        1 MOL      0.348305
    126 O17         4.6330    4.7760    3.0390 oh        1 MOL     -0.601773
    127 H57         4.7530    3.7670    0.8690 hn        1 MOL      0.270165
    128 H58         5.0980    2.0190    3.0320 h1        1 MOL      0.097735
    129 H59         6.5550    4.5960    2.5110 h1        1 MOL      0.002566
    130 H60         6.1500    3.9750    4.1420 h1        1 MOL      0.002566
    131 H61         3.8590    4.2520    3.2460 ho        1 MOL      0.407568
    132 N12         7.7860    2.3840    1.3260 n         1 MOL     -0.365526
    133 C43         8.8500    1.6640    0.6820 c3        1 MOL      0.169746
    134 C44         8.7980    0.1350    0.6080 c         1 MOL      0.577188
    135 O18         9.8480   -0.4940    0.4630 o         1 MOL     -0.557113
    136 C45        10.1960    2.2510    1.1880 c3        1 MOL     -0.508502
    137 H62         7.5970    3.2990    0.9310 hn        1 MOL      0.287866
    138 H63         8.8370    1.8710   -0.3930 h1        1 MOL      0.063238
    139 H64        10.3240    2.0240    2.2410 hc        1 MOL      0.141163
    140 H65        11.0040    1.8350    0.5910 hc        1 MOL      0.141163
    141 H66        10.1450    3.3330    1.2400 hc        1 MOL      0.141163
    142 N13         7.6190   -0.4640    0.5090 n         1 MOL     -0.561404
    143 C46         7.5410   -1.8900    0.3490 c3        1 MOL      0.417762
    144 C47         6.9640   -2.2910   -1.0450 c         1 MOL      0.419734
    145 O19         6.4040   -1.4020   -1.6890 o         1 MOL     -0.446328
    146 C48         6.6070   -2.3720    1.4410 c3        1 MOL     -0.086962
    147 H67         6.7360    0.0030    0.6720 hn        1 MOL      0.161141
    148 H68         8.4900   -2.3940    0.5070 h1        1 MOL     -0.008123
    149 H69         6.7070   -1.8210    2.3810 hc        1 MOL      0.016924
    150 H70         5.5840   -2.1880    1.1170 hc        1 MOL      0.016924
    151 H71         6.8260   -3.4390    1.4650 hc        1 MOL      0.016924
    152 N14         7.0680   -3.6360   -1.3250 n         1 MOL     -0.726079
    153 C49         6.3460   -4.2960   -2.4200 c3        1 MOL      0.042358
    154 C50         6.6070   -3.6820   -3.8310 c         1 MOL      0.430688
    155 O20         5.8240   -4.0190   -4.7350 o         1 MOL     -0.505908
    156 C51         4.9000   -4.4150   -2.0410 c3        1 MOL      0.068700
    157 C52         4.6350   -5.0180   -0.6510 c3        1 MOL     -0.119954
    158 C53         3.1480   -4.7880   -0.3340 c         1 MOL      0.672438
    159 O21         2.7220   -3.7360    0.2910 o         1 MOL     -0.705897
    160 O22         2.3010   -5.6550   -0.6350 o         1 MOL     -0.705897
    161 H72         7.6250   -4.2740   -0.7740 hn        1 MOL      0.406611
    162 H73         6.8030   -5.2930   -2.4520 h1        1 MOL      0.075977
    163 H74         4.3680   -5.0000   -2.7860 hc        1 MOL      0.028098
    164 H75         4.3860   -3.4600   -2.0650 hc        1 MOL      0.028098
    165 H76         5.2270   -4.4610    0.0860 hc        1 MOL      0.020773
    166 H77         4.8850   -6.0690   -0.5240 hc        1 MOL      0.020773
    167 N15         7.7050   -2.9720   -3.9950 n         1 MOL     -0.282490
    168 C54         8.0150   -2.1440   -5.1480 c3        1 MOL     -0.092056
    169 H78         8.8060   -2.6150   -5.7320 h1        1 MOL      0.076847
    170 H79         7.1240   -2.0340   -5.7670 h1        1 MOL      0.076847
    171 H80         8.3470   -1.1620   -4.8120 h1        1 MOL      0.076847
    172 H81         8.3120   -2.8760   -3.1960 hn        1 MOL      0.262006
    173 Ca1         1.1550   -1.8430   -0.5570 Ca        1 MOL      1.811311
    174 O23         0.6030   -4.0740   -2.0050 oh        1 MOL     -0.938884
    175 H82        -0.0610   -4.5130   -2.5300 ho        1 MOL      0.442674
    176 H83         1.1000   -4.7880   -1.5940 ho        1 MOL      0.442674
    177 O24         0.4070   -1.2500   -2.9790 oh        1 MOL     -0.938884
    178 H84         0.0860   -2.0650   -3.3750 ho        1 MOL      0.442674
    179 H85         0.2630   -0.5860   -3.6510 ho        1 MOL      0.442674
    180 O25        -0.1930   -3.4980    1.2130 oh        1 MOL     -0.938884
    181 H86        -0.5060   -4.3970    1.1190 ho        1 MOL      0.442674
    182 H87         0.4830   -3.5420    1.8860 ho        1 MOL      0.442674
    183 O26         3.8100   -1.0460   -1.0430 oh        1 MOL     -0.938884
    184 H88         3.9620   -0.4900   -0.2740 ho        1 MOL      0.442674
    185 H89         4.6710   -1.1220   -1.4510 ho        1 MOL      0.442674
@<TRIPOS>BOND
     1    1    2 1   
     2    1    4 1   
     3    1    5 1   
     4    1    6 1   
     5    2    3 2   
     6    2    7 1   
     7    7    8 1   
     8    7   15 1   
     9    8    9 1   
    10    8   11 1   
    11    8   16 1   
    12    9   10 2   
    13    9   19 1   
    14   11   12 1   
    15   11   17 1   
    16   11   18 1   
    17   12   13 1   
    18   12   14 1   
    19   19   20 1   
    20   19   28 1   
    21   20   21 1   
    22   20   23 1   
    23   20   29 1   
    24   21   22 2   
    25   21   41 1   
    26   23   24 1   
    27   23   30 1   
    28   23   31 1   
    29   24   25 1   
    30   24   32 1   
    31   24   33 1   
    32   25   26 1   
    33   25   34 1   
    34   25   35 1   
    35   26   27 1   
    36   26   36 1   
    37   26   37 1   
    38   27   38 1   
    39   27   39 1   
    40   27   40 1   
    41   41   42 1   
    42   41   49 1   
    43   42   43 1   
    44   42   45 1   
    45   42   50 1   
    46   43   44 2   
    47   43   53 1   
    48   45   46 1   
    49   45   51 1   
    50   45   52 1   
    51   46   47 1   
    52   46   48 1   
    53   53   54 1   
    54   53   57 1   
    55   54   55 1   
    56   54   58 1   
    57   54   59 1   
    58   55   56 2   
    59   55   60 1   
    60   60   61 1   
    61   60   68 1   
    62   61   62 1   
    63   61   64 1   
    64   61   69 1   
    65   62   63 2   
    66   62   74 1   
    67   64   65 1   
    68   64   70 1   
    69   64   71 1   
    70   65   66 1   
    71   65   67 2   
    72   66   72 1   
    73   66   73 1   
    74   74   75 1   
    75   74   78 1   
    76   75   76 1   
    77   75   79 1   
    78   75   80 1   
    79   76   77 2   
    80   76   81 1   
    81   81   82 1   
    82   81   93 1   
    83   82   83 1   
    84   82   85 1   
    85   82   94 1   
    86   83   84 2   
    87   83  102 1   
    88   85   86 1   
    89   85   95 1   
    90   85   96 1   
    91   86   87 ar  
    92   86   88 ar  
    93   87   89 ar  
    94   87   97 1   
    95   88   90 ar  
    96   88   98 1   
    97   89   91 ar  
    98   89   99 1   
    99   90   91 ar  
   100   90  100 1   
   101   91   92 1   
   102   92  101 1   
   103  102  103 1   
   104  102  110 1   
   105  103  104 1   
   106  103  106 1   
   107  103  111 1   
   108  104  105 2   
   109  104  121 1   
   110  106  107 1   
   111  106  108 1   
   112  106  112 1   
   113  107  109 1   
   114  107  113 1   
   115  107  114 1   
   116  108  115 1   
   117  108  116 1   
   118  108  117 1   
   119  109  118 1   
   120  109  119 1   
   121  109  120 1   
   122  121  122 1   
   123  121  127 1   
   124  122  123 1   
   125  122  125 1   
   126  122  128 1   
   127  123  124 2   
   128  123  132 1   
   129  125  126 1   
   130  125  129 1   
   131  125  130 1   
   132  126  131 1   
   133  132  133 1   
   134  132  137 1   
   135  133  134 1   
   136  133  136 1   
   137  133  138 1   
   138  134  135 2   
   139  134  142 1   
   140  136  139 1   
   141  136  140 1   
   142  136  141 1   
   143  142  143 1   
   144  142  147 1   
   145  143  144 1   
   146  143  146 1   
   147  143  148 1   
   148  144  145 2   
   149  144  152 1   
   150  146  149 1   
   151  146  150 1   
   152  146  151 1   
   153  152  153 1   
   154  152  161 1   
   155  153  154 1   
   156  153  156 1   
   157  153  162 1   
   158  154  155 2   
   159  154  167 1   
   160  156  157 1   
   161  156  163 1   
   162  156  164 1   
   163  157  158 1   
   164  157  165 1   
   165  157  166 1   
   166  158  159 1   
   167  158  160 1   
   168  167  168 1   
   169  167  172 1   
   170  168  169 1   
   171  168  170 1   
   172  168  171 1   
   173  174  175 1   
   174  174  176 1   
   175  177  178 1   
   176  177  179 1   
   177  180  181 1   
   178  180  182 1   
   179  183  184 1   
   180  183  185 1   
@<TRIPOS>SUBSTRUCTURE
     1 MOL         1 TEMP              0 ****  ****    0 ROOT
