@<TRIPOS>MOLECULE
MOL
  195   189     1     0     0
SMALL
resp


@<TRIPOS>ATOM
      1 C1         -6.4700    6.1830    1.5440 c3        1 MOL     -0.324899
      2 C2         -6.1180    4.6980    1.5000 c         1 MOL      0.655376
      3 O1         -5.7910    4.1310    2.4630 o         1 MOL     -0.532873
      4 H1         -6.8220    6.4430    2.5430 hc        1 MOL      0.074008
      5 H2         -5.5860    6.7740    1.3070 hc        1 MOL      0.074008
      6 H3         -7.2550    6.3920    0.8170 hc        1 MOL      0.074008
      7 N1         -6.4070    4.0520    0.3590 n         1 MOL     -0.491309
      8 C3         -5.7740    2.7470    0.0810 c3        1 MOL     -0.025372
      9 C4         -4.2040    2.8060   -0.1010 c         1 MOL      0.349131
     10 O2         -3.6590    1.6830   -0.2200 o         1 MOL     -0.429628
     11 C5         -6.4140    2.1430   -1.2040 c3        1 MOL     -0.309139
     12 C6         -6.1710    2.9260   -2.5110 c         1 MOL      0.719945
     13 O3         -7.2240    3.2830   -3.0470 o         1 MOL     -0.728801
     14 O4         -5.0140    3.2000   -2.9220 o         1 MOL     -0.728801
     15 H4         -6.9880    4.5160   -0.3240 hn        1 MOL      0.317223
     16 H5         -6.1370    2.1480    0.9220 h1        1 MOL      0.177982
     17 H6         -7.4850    2.1220   -1.0110 hc        1 MOL      0.061773
     18 H7         -6.0160    1.1450   -1.3880 hc        1 MOL      0.061773
     19 N2         -3.4780    3.9340   -0.0640 n         1 MOL     -0.270855
     20 C7         -2.0620    3.9840   -0.3020 c3        1 MOL      0.123274
     21 C8         -1.1590    3.8260    0.9620 c         1 MOL      0.613575
     22 O5         -1.3550    4.6110    1.8820 o         1 MOL     -0.631214
     23 C9         -1.5970    5.3230   -0.8920 c3        1 MOL     -0.191021
     24 C10        -2.2290    5.5550   -2.2710 c3        1 MOL      0.126993
     25 C11        -1.8770    6.8840   -2.9580 c3        1 MOL     -0.103277
     26 C12        -0.3440    6.9200   -3.0420 c3        1 MOL      0.035376
     27 N3          0.1290    8.2030   -3.6750 n4        1 MOL     -0.340236
     28 H8         -3.9570    4.8320   -0.0000 hn        1 MOL      0.226563
     29 H9         -1.7740    3.1880   -0.9920 h1        1 MOL      0.075061
     30 H10        -0.5150    5.2740   -0.9610 hc        1 MOL      0.036654
     31 H11        -1.8580    6.1450   -0.2310 hc        1 MOL      0.036654
     32 H12        -3.3190    5.5560   -2.1700 hc        1 MOL      0.017923
     33 H13        -1.9000    4.6930   -2.8570 hc        1 MOL      0.017923
     34 H14        -2.3470    7.7260   -2.4410 hc        1 MOL      0.044811
     35 H15        -2.3550    6.9480   -3.9360 hc        1 MOL      0.044811
     36 H16         0.0680    6.1130   -3.6550 hx        1 MOL      0.098621
     37 H17        -0.0320    6.8510   -2.0000 hx        1 MOL      0.098621
     38 H18         1.1140    8.3160   -3.4930 hn        1 MOL      0.315800
     39 H19        -0.0130    8.3120   -4.6700 hn        1 MOL      0.315800
     40 H20        -0.3760    8.9970   -3.3080 hn        1 MOL      0.315800
     41 N4         -0.1390    3.0440    1.1300 n         1 MOL     -0.399105
     42 C13         0.5480    2.0750    0.2700 c3        1 MOL      0.072528
     43 C14         1.1180    2.6400   -1.0220 c         1 MOL      0.503738
     44 O6          0.3930    2.7790   -2.0410 o         1 MOL     -0.568466
     45 C15        -0.2480    0.7670    0.0390 c3        1 MOL      0.081093
     46 C16        -0.2820   -0.0410    1.3210 c         1 MOL      0.933508
     47 O7         -1.3320   -0.0460    1.9900 o         1 MOL     -0.851339
     48 O8          0.7560   -0.6660    1.6970 o         1 MOL     -0.851339
     49 H21         0.1930    3.1220    2.0800 hn        1 MOL      0.308479
     50 H22         1.4340    1.7690    0.8360 h1        1 MOL     -0.086360
     51 H23         0.2020    0.1800   -0.7610 hc        1 MOL     -0.041706
     52 H24        -1.2760    0.9400   -0.3060 hc        1 MOL     -0.041706
     53 N5          2.3400    3.0640   -1.1310 n         1 MOL     -0.501869
     54 C17         3.3900    2.9160   -0.0250 c3        1 MOL      0.160028
     55 C18         4.7590    3.5140   -0.4550 c         1 MOL      0.547003
     56 O9          4.9090    3.8050   -1.6360 o         1 MOL     -0.582694
     57 H25         2.6810    3.4360   -2.0010 hn        1 MOL      0.286393
     58 H26         3.6190    1.8870    0.2210 h1        1 MOL      0.071831
     59 H27         2.9880    3.5200    0.7960 h1        1 MOL      0.071831
     60 N6          5.8290    3.4980    0.3320 n         1 MOL     -0.534067
     61 C19         5.9570    2.9550    1.6590 c3        1 MOL      0.155438
     62 C20         7.3020    2.1710    1.8560 c         1 MOL      0.427192
     63 O10         8.1550    2.2860    0.9620 o         1 MOL     -0.443574
     64 C21         5.7550    3.9710    2.7830 c3        1 MOL     -0.136849
     65 C22         6.7590    5.1040    2.7050 c         1 MOL      0.633898
     66 O11         7.8810    5.0010    3.3490 o         1 MOL     -0.650874
     67 O12         6.5470    6.0580    1.9410 o         1 MOL     -0.650874
     68 H28         6.7030    3.8720   -0.0280 hn        1 MOL      0.374019
     69 H29         5.0850    2.3050    1.7820 h1        1 MOL     -0.042147
     70 H30         5.8320    3.4430    3.7310 hc        1 MOL     -0.007005
     71 H31         4.7220    4.3100    2.6480 hc        1 MOL     -0.007005
     72 N7          7.5570    1.3470    2.8640 n         1 MOL     -0.385988
     73 C23         8.7280    0.3900    2.8680 c3        1 MOL     -0.048512
     74 C24         8.8080   -0.6200    1.6750 c         1 MOL      0.438484
     75 O13         9.8360   -0.9020    1.0630 o         1 MOL     -0.510718
     76 H32         7.0130    1.4540    3.7100 hn        1 MOL      0.282948
     77 H33         8.6480   -0.2110    3.7790 h1        1 MOL      0.094529
     78 H34         9.6760    0.9300    2.9090 h1        1 MOL      0.094529
     79 N8          7.6830   -1.3050    1.4640 n         1 MOL     -0.303008
     80 C25         7.3850   -2.3530    0.4100 c3        1 MOL      0.133349
     81 C26         6.2220   -1.8640   -0.5180 c         1 MOL      0.372727
     82 O14         5.1060   -1.5540   -0.0610 o         1 MOL     -0.537585
     83 C27         7.1210   -3.7300    0.9940 c3        1 MOL      0.243984
     84 C28         8.2660   -4.1790    1.8150 c3        1 MOL     -0.363612
     85 O15         6.8630   -4.6700   -0.0610 oh        1 MOL     -0.644420
     86 H35         6.9010   -1.0790    2.0670 hn        1 MOL      0.180528
     87 H36         8.2040   -2.4570   -0.3110 h1        1 MOL      0.059042
     88 H37         6.1990   -3.6110    1.5550 h1        1 MOL      0.036789
     89 H38         7.1870   -5.5330    0.1950 ho        1 MOL      0.418219
     90 H39         8.3870   -3.5890    2.7190 hc        1 MOL      0.101886
     91 H40         8.1810   -5.2170    2.1230 hc        1 MOL      0.101886
     92 H41         9.1740   -4.1710    1.1960 hc        1 MOL      0.101886
     93 N9          6.3570   -1.9380   -1.8400 n         1 MOL     -0.218111
     94 C29         5.2550   -1.5530   -2.7980 c3        1 MOL      0.038568
     95 C30         4.4090   -2.8300   -3.0420 c         1 MOL      0.324646
     96 O16         4.6400   -3.7290   -3.9260 o         1 MOL     -0.484415
     97 C31         5.8460   -0.9280   -4.0170 c3        1 MOL      0.112299
     98 C32         6.9450    0.1600   -3.7260 c3        1 MOL      0.007513
     99 C33         4.8010   -0.5250   -5.0320 c3        1 MOL     -0.219111
    100 C34         6.4080    1.5660   -3.3820 c3        1 MOL     -0.141623
    101 H42         7.1700   -2.4180   -2.2010 hn        1 MOL      0.240543
    102 H43         4.5760   -0.8170   -2.3620 h1        1 MOL      0.081009
    103 H44         6.3800   -1.8060   -4.3650 hc        1 MOL     -0.022746
    104 H45         7.5250    0.2480   -4.6360 hc        1 MOL     -0.000067
    105 H46         7.6170   -0.2030   -2.9630 hc        1 MOL     -0.000067
    106 H47         4.1670    0.2150   -4.5330 hc        1 MOL      0.056958
    107 H48         5.3010   -0.0330   -5.8700 hc        1 MOL      0.056958
    108 H49         4.0980   -1.2940   -5.3440 hc        1 MOL      0.056958
    109 H50         5.7060    1.4140   -2.5660 hc        1 MOL      0.051357
    110 H51         7.2810    2.1490   -3.0830 hc        1 MOL      0.051357
    111 H52         5.9640    2.0970   -4.2170 hc        1 MOL      0.051357
    112 N10         3.3210   -2.8410   -2.1850 n         1 MOL     -0.017186
    113 C35         2.1580   -3.7440   -2.3990 c3        1 MOL     -0.536411
    114 C36         0.9320   -3.3260   -1.6230 c         1 MOL      0.776367
    115 O17         1.0590   -3.0040   -0.4930 o         1 MOL     -0.467685
    116 C37         2.5020   -5.2330   -1.9470 c3        1 MOL      0.421624
    117 C38         2.9610   -5.5870   -0.5460 c3        1 MOL     -0.167801
    118 O18         3.4490   -5.8920   -2.8130 oh        1 MOL     -0.670462
    119 H53         3.1280   -2.0880   -1.5440 hn        1 MOL      0.193767
    120 H54         1.9130   -3.6670   -3.4590 h1        1 MOL      0.179803
    121 H55         1.5650   -5.7730   -2.0280 h1        1 MOL      0.002706
    122 H56         4.0490   -5.2900   -3.2610 ho        1 MOL      0.424364
    123 H57         2.3630   -5.2470    0.2940 hc        1 MOL      0.030695
    124 H58         3.0310   -6.6720   -0.4770 hc        1 MOL      0.030695
    125 H59         3.9420   -5.1130   -0.4620 hc        1 MOL      0.030695
    126 N11        -0.2020   -3.3870   -2.2910 n         1 MOL     -0.616531
    127 C39        -1.4850   -2.8170   -1.7820 c3        1 MOL      0.074983
    128 C40        -2.5320   -3.8510   -1.5800 c         1 MOL      0.496853
    129 O19        -2.5810   -4.8540   -2.3170 o         1 MOL     -0.517368
    130 C41        -2.0320   -1.6920   -2.6680 c3        1 MOL      0.597485
    131 C42        -2.2430   -2.0560   -4.1300 c3        1 MOL     -0.587847
    132 O20        -1.1190   -0.6500   -2.6780 oh        1 MOL     -0.600422
    133 H60        -0.2210   -3.8640   -3.1850 hn        1 MOL      0.323557
    134 H61        -1.2220   -2.4100   -0.8030 h1        1 MOL      0.013647
    135 H62        -2.9710   -1.3600   -2.2280 h1        1 MOL     -0.057794
    136 H63        -1.6770    0.1300   -2.6850 ho        1 MOL      0.385211
    137 H64        -2.8960   -2.9330   -4.1020 hc        1 MOL      0.141051
    138 H65        -2.6080   -1.1880   -4.6740 hc        1 MOL      0.141051
    139 H66        -1.2840   -2.4690   -4.4420 hc        1 MOL      0.141051
    140 N12        -3.5560   -3.4890   -0.7600 n         1 MOL     -0.357501
    141 C43        -4.7310   -4.3510   -0.4180 c3        1 MOL     -0.105708
    142 C44        -5.4800   -3.8550    0.8260 c         1 MOL      0.361930
    143 O21        -5.9750   -4.7450    1.5040 o         1 MOL     -0.533751
    144 C45        -5.7530   -4.3850   -1.6260 c3        1 MOL     -0.185006
    145 C46        -6.1320   -3.0610   -2.1590 c3        1 MOL      0.002835
    146 C47        -6.9460   -3.2130   -3.4320 c3        1 MOL     -0.100406
    147 C48        -7.4460   -1.8140   -3.9220 c3        1 MOL      0.087444
    148 N13        -8.2450   -1.9770   -5.1690 n4        1 MOL     -0.327326
    149 H67        -3.4110   -2.6790   -0.1800 hn        1 MOL      0.213297
    150 H68        -4.3230   -5.3510   -0.2620 h1        1 MOL      0.140441
    151 H69        -6.7100   -4.7970   -1.2910 hc        1 MOL      0.106696
    152 H70        -5.3420   -5.0520   -2.3810 hc        1 MOL      0.106696
    153 H71        -5.2790   -2.4350   -2.4200 hc        1 MOL      0.054339
    154 H72        -6.8180   -2.5250   -1.5190 hc        1 MOL      0.054339
    155 H73        -7.8540   -3.8210   -3.3170 hc        1 MOL      0.024612
    156 H74        -6.3500   -3.5480   -4.2790 hc        1 MOL      0.024612
    157 H75        -6.5740   -1.1580   -4.0150 hx        1 MOL      0.094681
    158 H76        -8.1790   -1.4110   -3.2330 hx        1 MOL      0.094681
    159 H77        -8.9870   -2.6540   -5.1220 hn        1 MOL      0.294567
    160 H78        -8.5920   -1.0690   -5.4360 hn        1 MOL      0.294567
    161 H79        -7.5560   -2.3090   -5.8300 hn        1 MOL      0.294567
    162 N14        -5.5280   -2.5990    1.2670 n         1 MOL      0.071642
    163 C49        -6.3270   -2.0310    2.3240 c3        1 MOL     -0.422333
    164 C50        -7.2800   -0.9150    1.9000 c         1 MOL      0.516271
    165 O22        -6.8930   -0.2370    0.9290 o         1 MOL     -0.539220
    166 C51        -5.4020   -1.4890    3.4430 c3        1 MOL      0.142479
    167 C52        -4.8780   -2.5070    4.5010 c3        1 MOL     -0.032202
    168 C53        -3.6770   -1.8660    5.2290 c         1 MOL      0.576599
    169 O23        -3.8170   -1.6570    6.4440 o         1 MOL     -0.650732
    170 O24        -2.6280   -1.5070    4.6090 o         1 MOL     -0.650732
    171 H80        -5.0870   -1.9870    0.5860 hn        1 MOL      0.123706
    172 H81        -6.8210   -2.9070    2.7320 h1        1 MOL      0.140497
    173 H82        -5.8880   -0.6480    3.9270 hc        1 MOL      0.034223
    174 H83        -4.4750   -1.1040    3.0100 hc        1 MOL      0.034223
    175 H84        -4.4820   -3.3920    3.9910 hc        1 MOL     -0.020831
    176 H85        -5.6770   -2.8760    5.1450 hc        1 MOL     -0.020831
    177 N15        -8.3620   -0.7210    2.6330 n         1 MOL     -0.271077
    178 C54        -9.4020    0.2860    2.3140 c3        1 MOL     -0.150753
    179 H86        -9.5780    0.9150    3.1870 h1        1 MOL      0.094793
    180 H87        -9.0650    0.9060    1.4830 h1        1 MOL      0.094793
    181 H88       -10.3270   -0.2200    2.0390 h1        1 MOL      0.094793
    182 H89        -8.6210   -1.4710    3.2550 hn        1 MOL      0.265330
    183 Ca1        -0.2400   -1.8720    3.7460 Ca        1 MOL      1.771736
    184 O25         0.9410   -3.5760    2.1960 oh        1 MOL     -0.912703
    185 H90         0.8910   -4.5280    2.3110 ho        1 MOL      0.437419
    186 H91         1.0320   -3.4550    1.2570 ho        1 MOL      0.437419
    187 O26        -1.1470   -3.9850    4.9520 oh        1 MOL     -0.912703
    188 H92        -2.0080   -4.3560    5.0800 ho        1 MOL      0.437419
    189 H93        -0.5570   -4.5910    5.3910 ho        1 MOL      0.437419
    190 O27        -0.1290    0.5160    4.7750 oh        1 MOL     -0.912703
    191 H94        -0.1110    0.6380    5.7220 ho        1 MOL      0.437419
    192 H95         0.3730    1.2410    4.4230 ho        1 MOL      0.437419
    193 O28        -2.0690   -2.9170    2.1020 oh        1 MOL     -0.912703
    194 H96        -2.4400   -3.7830    1.9790 ho        1 MOL      0.437419
    195 H97        -2.8120   -2.3660    2.3380 ho        1 MOL      0.437419
@<TRIPOS>BOND
     1    1    2 1   
     2    1    4 1   
     3    1    5 1   
     4    1    6 1   
     5    2    3 2   
     6    2    7 1   
     7    7    8 1   
     8    7   15 1   
     9    8    9 1   
    10    8   11 1   
    11    8   16 1   
    12    9   10 2   
    13    9   19 1   
    14   11   12 1   
    15   11   17 1   
    16   11   18 1   
    17   12   13 1   
    18   12   14 1   
    19   19   20 1   
    20   19   28 1   
    21   20   21 1   
    22   20   23 1   
    23   20   29 1   
    24   21   22 2   
    25   21   41 1   
    26   23   24 1   
    27   23   30 1   
    28   23   31 1   
    29   24   25 1   
    30   24   32 1   
    31   24   33 1   
    32   25   26 1   
    33   25   34 1   
    34   25   35 1   
    35   26   27 1   
    36   26   36 1   
    37   26   37 1   
    38   27   38 1   
    39   27   39 1   
    40   27   40 1   
    41   41   42 1   
    42   41   49 1   
    43   42   43 1   
    44   42   45 1   
    45   42   50 1   
    46   43   44 2   
    47   43   53 1   
    48   45   46 1   
    49   45   51 1   
    50   45   52 1   
    51   46   47 1   
    52   46   48 1   
    53   53   54 1   
    54   53   57 1   
    55   54   55 1   
    56   54   58 1   
    57   54   59 1   
    58   55   56 2   
    59   55   60 1   
    60   60   61 1   
    61   60   68 1   
    62   61   62 1   
    63   61   64 1   
    64   61   69 1   
    65   62   63 2   
    66   62   72 1   
    67   64   65 1   
    68   64   70 1   
    69   64   71 1   
    70   65   66 1   
    71   65   67 1   
    72   72   73 1   
    73   72   76 1   
    74   73   74 1   
    75   73   77 1   
    76   73   78 1   
    77   74   75 2   
    78   74   79 1   
    79   79   80 1   
    80   79   86 1   
    81   80   81 1   
    82   80   83 1   
    83   80   87 1   
    84   81   82 2   
    85   81   93 1   
    86   83   84 1   
    87   83   85 1   
    88   83   88 1   
    89   84   90 1   
    90   84   91 1   
    91   84   92 1   
    92   85   89 1   
    93   93   94 1   
    94   93  101 1   
    95   94   95 1   
    96   94   97 1   
    97   94  102 1   
    98   95   96 2   
    99   95  112 1   
   100   97   98 1   
   101   97   99 1   
   102   97  103 1   
   103   98  100 1   
   104   98  104 1   
   105   98  105 1   
   106   99  106 1   
   107   99  107 1   
   108   99  108 1   
   109  100  109 1   
   110  100  110 1   
   111  100  111 1   
   112  112  113 1   
   113  112  119 1   
   114  113  114 1   
   115  113  116 1   
   116  113  120 1   
   117  114  115 2   
   118  114  126 1   
   119  116  117 1   
   120  116  118 1   
   121  116  121 1   
   122  117  123 1   
   123  117  124 1   
   124  117  125 1   
   125  118  122 1   
   126  126  127 1   
   127  126  133 1   
   128  127  128 1   
   129  127  130 1   
   130  127  134 1   
   131  128  129 2   
   132  128  140 1   
   133  130  131 1   
   134  130  132 1   
   135  130  135 1   
   136  131  137 1   
   137  131  138 1   
   138  131  139 1   
   139  132  136 1   
   140  140  141 1   
   141  140  149 1   
   142  141  142 1   
   143  141  144 1   
   144  141  150 1   
   145  142  143 2   
   146  142  162 1   
   147  144  145 1   
   148  144  151 1   
   149  144  152 1   
   150  145  146 1   
   151  145  153 1   
   152  145  154 1   
   153  146  147 1   
   154  146  155 1   
   155  146  156 1   
   156  147  148 1   
   157  147  157 1   
   158  147  158 1   
   159  148  159 1   
   160  148  160 1   
   161  148  161 1   
   162  162  163 1   
   163  162  171 1   
   164  163  164 1   
   165  163  166 1   
   166  163  172 1   
   167  164  165 2   
   168  164  177 1   
   169  166  167 1   
   170  166  173 1   
   171  166  174 1   
   172  167  168 1   
   173  167  175 1   
   174  167  176 1   
   175  168  169 1   
   176  168  170 1   
   177  177  178 1   
   178  177  182 1   
   179  178  179 1   
   180  178  180 1   
   181  178  181 1   
   182  184  185 1   
   183  184  186 1   
   184  187  188 1   
   185  187  189 1   
   186  190  191 1   
   187  190  192 1   
   188  193  194 1   
   189  193  195 1   
@<TRIPOS>SUBSTRUCTURE
     1 MOL         1 TEMP              0 ****  ****    0 ROOT
