@<TRIPOS>MOLECULE
MOL
  195   189     1     0     0
SMALL
resp


@<TRIPOS>ATOM
      1 C1          4.0660   -3.9380   -3.7790 c3        1 MOL     -0.191159
      2 C2          3.5710   -3.6100   -2.3330 c         1 MOL      0.625748
      3 O1          2.8900   -2.6110   -2.1170 o         1 MOL     -0.533401
      4 H1          3.3670   -4.6270   -4.2550 hc        1 MOL      0.028950
      5 H2          4.1210   -3.0190   -4.3630 hc        1 MOL      0.028950
      6 H3          5.0530   -4.3980   -3.7310 hc        1 MOL      0.028950
      7 N1          3.7630   -4.5380   -1.3930 n         1 MOL     -0.308475
      8 C3          3.3210   -4.4730    0.0190 c3        1 MOL     -0.108111
      9 C4          1.8230   -4.2180    0.2220 c         1 MOL      0.687094
     10 O2          1.4190   -3.4890    1.1410 o         1 MOL     -0.574888
     11 C5          4.2020   -3.5350    0.8230 c3        1 MOL      0.045079
     12 C6          5.6390   -3.7490    0.5350 c         1 MOL      0.549490
     13 O3          6.3860   -4.3910    1.3240 o         1 MOL     -0.771148
     14 O4          6.1920   -3.1920   -0.3640 o         1 MOL     -0.771148
     15 H4          4.3500   -5.3240   -1.6250 hn        1 MOL      0.202478
     16 H5          3.5890   -5.4450    0.4180 h1        1 MOL      0.062690
     17 H6          4.0340   -3.7500    1.8820 hc        1 MOL      0.061746
     18 H7          3.9040   -2.4990    0.6360 hc        1 MOL      0.061746
     19 N2          1.0210   -4.8430   -0.6510 n         1 MOL     -0.472922
     20 C7         -0.4450   -4.6990   -0.6450 c3        1 MOL     -0.295832
     21 C8         -1.1150   -5.4880    0.5260 c         1 MOL      0.707380
     22 O5         -0.5380   -6.4160    1.0640 o         1 MOL     -0.604043
     23 C9         -0.9610   -4.9150   -2.1290 c3        1 MOL      0.319871
     24 C10        -0.9510   -6.3440   -2.4600 c3        1 MOL      0.016034
     25 C11        -0.0790   -4.0080   -3.0280 c3        1 MOL     -0.376699
     26 C12        -1.5440   -6.4800   -3.8720 c3        1 MOL     -0.367233
     27 H8          1.4290   -5.5120   -1.3030 hn        1 MOL      0.215741
     28 H9         -0.4850   -3.6180   -0.5360 h1        1 MOL      0.177899
     29 H10        -1.9190   -4.4000   -2.2050 hc        1 MOL      0.031604
     30 H11        -1.6450   -6.8850   -1.8180 hc        1 MOL      0.032144
     31 H12         0.0270   -6.8110   -2.3700 hc        1 MOL      0.032144
     32 H13         0.0520   -3.0440   -2.5350 hc        1 MOL      0.104971
     33 H14         0.9210   -4.4400   -3.0410 hc        1 MOL      0.104971
     34 H15        -0.5410   -3.8490   -3.9970 hc        1 MOL      0.104971
     35 H16        -2.5330   -6.0070   -3.8580 hc        1 MOL      0.078585
     36 H17        -0.9970   -5.9290   -4.6390 hc        1 MOL      0.078585
     37 H18        -1.5480   -7.5500   -4.0320 hc        1 MOL      0.078585
     38 N3         -2.2360   -5.0700    1.0500 n         1 MOL     -0.543895
     39 C13        -3.1800   -4.0900    0.5000 c3        1 MOL      0.035285
     40 C14        -3.6570   -3.0490    1.4760 c         1 MOL      0.579483
     41 O6         -4.2720   -2.0640    1.0290 o         1 MOL     -0.513631
     42 C15        -4.3790   -4.8430   -0.2310 c3        1 MOL     -0.168404
     43 C16        -5.2140   -5.8340    0.6000 c         1 MOL      0.735962
     44 O7         -6.3710   -6.1170    0.1880 o         1 MOL     -0.706431
     45 O8         -4.7370   -6.3870    1.6370 o         1 MOL     -0.706431
     46 H19        -2.6230   -5.5650    1.8400 hn        1 MOL      0.306675
     47 H20        -2.7800   -3.5890   -0.3860 h1        1 MOL     -0.094808
     48 H21        -3.9130   -5.3410   -1.0790 hc        1 MOL      0.037185
     49 H22        -5.0350   -4.1050   -0.6820 hc        1 MOL      0.037185
     50 N4         -3.4790   -3.1550    2.8300 n         1 MOL     -0.458352
     51 C17        -4.1390   -2.3630    3.8340 c3        1 MOL     -0.146945
     52 C18        -5.6360   -2.4390    3.5910 c         1 MOL      0.636494
     53 O9         -6.2450   -3.5070    3.6660 o         1 MOL     -0.543009
     54 H23        -2.9150   -3.8850    3.2500 hn        1 MOL      0.340131
     55 H24        -3.8650   -1.3100    3.7570 h1        1 MOL      0.094227
     56 H25        -3.9530   -2.7000    4.8460 h1        1 MOL      0.094227
     57 N5         -6.2320   -1.2480    3.4270 n         1 MOL     -0.667216
     58 C19        -7.6900   -1.0700    3.2280 c3        1 MOL      0.284352
     59 C20        -8.1620   -1.1450    1.7710 c         1 MOL      0.304086
     60 O10        -9.3700   -0.9880    1.3960 o         1 MOL     -0.507829
     61 C21        -8.0940    0.2820    3.8610 c3        1 MOL     -0.390624
     62 C22        -7.3310    1.4360    3.2430 c         1 MOL      0.821805
     63 O11        -6.4920    1.3710    2.3270 o         1 MOL     -0.728678
     64 O12        -7.5290    2.5440    3.8070 o         1 MOL     -0.728678
     65 H26        -5.6970   -0.3950    3.3500 hn        1 MOL      0.349868
     66 H27        -8.2730   -1.7570    3.8290 h1        1 MOL      0.055764
     67 H28        -7.9870    0.2520    4.9410 hc        1 MOL      0.095089
     68 H29        -9.1410    0.4050    3.5810 hc        1 MOL      0.095089
     69 N6         -7.2140   -1.4460    0.8410 n         1 MOL     -0.244365
     70 C23        -7.4580   -1.3560   -0.6270 c3        1 MOL     -0.091692
     71 C24        -7.6410    0.0760   -1.1160 c         1 MOL      0.430584
     72 O13        -7.7980    0.2280   -2.3570 o         1 MOL     -0.581537
     73 H30        -6.3680   -1.9270    1.1330 hn        1 MOL      0.283391
     74 H31        -8.3980   -1.8630   -0.8270 h1        1 MOL      0.106693
     75 H32        -6.7440   -1.9380   -1.2090 h1        1 MOL      0.106693
     76 N7         -7.5590    1.1410   -0.2760 n         1 MOL     -0.081660
     77 C25        -7.7750    2.5870   -0.6040 c3        1 MOL      0.258093
     78 C26        -6.8970    2.9800   -1.7980 c         1 MOL      0.319613
     79 O14        -7.2750    3.8710   -2.6330 o         1 MOL     -0.533947
     80 C27        -9.2400    2.8390   -0.8050 c3        1 MOL     -0.139439
     81 C28       -10.0450    2.8390    0.5010 c3        1 MOL     -0.051599
     82 C29       -11.5370    2.7990    0.2920 c         1 MOL      0.641329
     83 N8        -12.0050    3.7320   -0.4640 n         1 MOL     -0.815709
     84 O15       -12.2980    1.8840    0.5770 o         1 MOL     -0.559439
     85 H33        -7.4550    0.9610    0.7060 hn        1 MOL      0.018465
     86 H34        -7.3660    3.2140    0.1760 h1        1 MOL      0.056038
     87 H35        -9.6190    2.0420   -1.4380 hc        1 MOL      0.046698
     88 H36        -9.3540    3.7560   -1.3790 hc        1 MOL      0.046698
     89 H37        -9.7870    3.7290    1.0570 hc        1 MOL      0.017186
     90 H38        -9.8590    2.0060    1.1810 hc        1 MOL      0.017186
     91 H39       -11.3470    4.3100   -0.9640 hn        1 MOL      0.352069
     92 H40       -12.9930    3.8240   -0.6730 hn        1 MOL      0.352069
     93 N9         -5.7060    2.3790   -1.9390 n         1 MOL     -0.359805
     94 C30        -4.7820    2.6680   -3.0430 c3        1 MOL     -0.016663
     95 C31        -3.3890    2.3900   -2.7260 c         1 MOL      0.449515
     96 O16        -2.5560    2.4720   -3.6330 o         1 MOL     -0.487936
     97 C32        -5.1960    1.9020   -4.2850 c3        1 MOL      0.246798
     98 C33        -4.5870    2.3800   -5.6220 c3        1 MOL     -0.336684
     99 C34        -5.0800    0.3980   -4.2330 c3        1 MOL     -0.336684
    100 H41        -5.4350    1.6810   -1.2720 hn        1 MOL      0.207780
    101 H42        -4.8060    3.7550   -3.1370 h1        1 MOL      0.128560
    102 H43        -6.2410    2.1660   -4.4550 hc        1 MOL      0.045003
    103 H44        -5.2920    2.1990   -6.4240 hc        1 MOL      0.073542
    104 H45        -4.4350    3.4460   -5.5130 hc        1 MOL      0.073542
    105 H46        -3.6340    1.8880   -5.8170 hc        1 MOL      0.073542
    106 H47        -5.3990   -0.1330   -5.1340 hc        1 MOL      0.073542
    107 H48        -4.0840    0.1220   -3.9000 hc        1 MOL      0.073542
    108 H49        -5.6900   -0.0140   -3.4290 hc        1 MOL      0.073542
    109 N10        -2.9710    1.9760   -1.5090 n         1 MOL     -0.514160
    110 C35        -1.5980    1.6400   -1.1710 c3        1 MOL      0.232473
    111 C36        -0.9650    2.4460   -0.0450 c         1 MOL      0.611469
    112 O17        -1.6490    3.0660    0.7520 o         1 MOL     -0.537816
    113 C37        -1.4880    0.1300   -0.8560 c3        1 MOL     -0.069202
    114 C38        -2.1250   -0.7280   -1.9340 c         1 MOL      0.432113
    115 N11        -3.3230   -1.2720   -1.7780 n         1 MOL     -0.291150
    116 O18        -1.5620   -0.8730   -3.0220 o         1 MOL     -0.543705
    117 H50        -3.5890    2.0530   -0.7240 hn        1 MOL      0.295706
    118 H51        -1.0110    1.7460   -2.0860 h1        1 MOL      0.029385
    119 H52        -1.8930   -0.0480    0.1390 hc        1 MOL      0.031120
    120 H53        -0.4120   -0.0650   -0.8720 hc        1 MOL      0.031120
    121 H54        -3.8650   -1.1310   -0.9450 hn        1 MOL      0.225836
    122 H55        -3.7190   -1.5750   -2.6630 hn        1 MOL      0.225836
    123 N12         0.3840    2.4050    0.0010 n         1 MOL     -0.710865
    124 C39         1.1480    3.2950    0.7820 c3        1 MOL      0.251693
    125 C40         2.4390    3.5680    0.0390 c         1 MOL      0.711456
    126 O19         3.0150    2.7380   -0.6860 o         1 MOL     -0.620179
    127 C41         1.5230    2.7780    2.2450 c3        1 MOL     -0.181971
    128 C42         2.4420    3.7430    2.9770 ca        1 MOL     -0.005528
    129 C43         3.7590    3.3400    3.3500 ca        1 MOL     -0.149575
    130 C44         1.9470    5.0170    3.3200 ca        1 MOL     -0.149575
    131 C45         4.5410    4.2450    4.0350 ca        1 MOL     -0.247923
    132 C46         2.7080    5.9310    4.0830 ca        1 MOL     -0.247923
    133 C47         4.0400    5.5350    4.3830 ca        1 MOL      0.290064
    134 O20         4.7620    6.4230    5.1190 oh        1 MOL     -0.474957
    135 H56         0.8470    1.8520   -0.7010 hn        1 MOL      0.348117
    136 H57         0.6170    4.2470    0.7640 h1        1 MOL      0.036802
    137 H58         1.9690    1.7940    2.1150 hc        1 MOL      0.095451
    138 H59         0.6100    2.6070    2.8260 hc        1 MOL      0.095451
    139 H60         4.0750    2.3420    3.0850 ha        1 MOL      0.134330
    140 H61         0.9410    5.3050    3.0470 ha        1 MOL      0.134330
    141 H62         5.5130    3.8470    4.2980 ha        1 MOL      0.154482
    142 H63         2.4210    6.9270    4.3910 ha        1 MOL      0.154482
    143 H64         5.4910    6.0220    5.5900 ho        1 MOL      0.353406
    144 N13         2.8930    4.8310    0.2280 n         1 MOL     -0.889902
    145 C48         4.2140    5.1980   -0.3380 c3        1 MOL      0.713713
    146 C49         5.3180    5.1760    0.7160 c         1 MOL      0.571259
    147 O21         5.4150    6.0410    1.5450 o         1 MOL     -0.522224
    148 C50         4.0850    6.5140   -1.0470 c3        1 MOL     -0.019365
    149 C51         5.3420    7.1040   -1.6780 c3        1 MOL     -0.235288
    150 C52         5.2060    8.6770   -1.8890 c         1 MOL      0.670800
    151 O22         5.9100    9.4420   -1.1870 o         1 MOL     -0.675233
    152 O23         4.3710    9.0920   -2.7690 o         1 MOL     -0.675233
    153 H65         2.3890    5.4270    0.8600 hn        1 MOL      0.360760
    154 H66         4.5270    4.4830   -1.1040 h1        1 MOL     -0.124803
    155 H67         3.8630    7.2330   -0.2540 hc        1 MOL     -0.015149
    156 H68         3.3170    6.4120   -1.8050 hc        1 MOL     -0.015149
    157 H69         5.5690    6.4820   -2.5430 hc        1 MOL      0.017869
    158 H70         6.1410    7.0300   -0.9340 hc        1 MOL      0.017869
    159 N14         6.2130    4.1750    0.7550 n         1 MOL     -0.617930
    160 C53         6.2270    2.8960    0.0530 c3        1 MOL      0.204509
    161 C54         6.7290    3.2660   -1.3730 c         1 MOL      0.489664
    162 O24         7.5790    4.1450   -1.5760 o         1 MOL     -0.544363
    163 C55         7.1670    1.9680    0.7490 c3        1 MOL      0.062290
    164 C56         6.9660    0.5430    0.1870 c3        1 MOL     -0.147022
    165 C57         7.6440   -0.5630    0.8970 c         1 MOL      0.634462
    166 O25         7.2210   -0.8800    2.0480 o         1 MOL     -0.670041
    167 O26         8.6190   -1.1740    0.3640 o         1 MOL     -0.670041
    168 H71         6.8000    4.2190    1.5820 hn        1 MOL      0.272898
    169 H72         5.2270    2.4790    0.1350 h1        1 MOL      0.039940
    170 H73         6.9880    1.9400    1.8240 hc        1 MOL     -0.014533
    171 H74         8.1880    2.2460    0.4860 hc        1 MOL     -0.014533
    172 H75         7.1950    0.6470   -0.8740 hc        1 MOL      0.020584
    173 H76         5.8940    0.3420    0.3120 hc        1 MOL      0.020584
    174 N15         6.2190    2.6140   -2.4400 n         1 MOL     -0.140774
    175 C58         6.6020    2.7010   -3.8830 c3        1 MOL     -0.407757
    176 H77         6.2570    1.8090   -4.4050 h1        1 MOL      0.143600
    177 H78         6.1420    3.5830   -4.3290 h1        1 MOL      0.143600
    178 H79         7.6860    2.7740   -3.9690 h1        1 MOL      0.143600
    179 H80         5.4050    2.0170   -2.3870 hn        1 MOL      0.197383
    180 Ca1         8.6460   -3.8040    0.2360 Ca        1 MOL      1.803151
    181 O27        11.0820   -3.1770    0.8830 oh        1 MOL     -0.867485
    182 H81        11.8180   -3.1330    0.2840 ho        1 MOL      0.405376
    183 H82        11.4480   -3.5280    1.6930 ho        1 MOL      0.405376
    184 O28         8.4330   -2.9910    2.9640 oh        1 MOL     -0.867485
    185 H83         8.0450   -3.0970    3.8330 ho        1 MOL      0.405376
    186 H84         7.9780   -2.2300    2.5910 ho        1 MOL      0.405376
    187 O29         8.5950   -3.3350   -2.2670 oh        1 MOL     -0.867485
    188 H85         8.0690   -3.8040   -2.9030 ho        1 MOL      0.405376
    189 H86         8.8090   -2.5040   -2.6890 ho        1 MOL      0.405376
    190 O30         9.1070   -5.8680    1.9690 oh        1 MOL     -0.867485
    191 H87         8.5020   -5.9220    2.7000 ho        1 MOL      0.405376
    192 H88         9.8320   -6.4570    2.2010 ho        1 MOL      0.405376
    193 O31        10.3300   -5.4240   -0.9160 oh        1 MOL     -0.867485
    194 H89        11.2280   -5.7460   -0.9490 ho        1 MOL      0.405376
    195 H90         9.8640   -5.9660   -1.5550 ho        1 MOL      0.405376
@<TRIPOS>BOND
     1    1    2 1   
     2    1    4 1   
     3    1    5 1   
     4    1    6 1   
     5    2    3 2   
     6    2    7 1   
     7    7    8 1   
     8    7   15 1   
     9    8    9 1   
    10    8   11 1   
    11    8   16 1   
    12    9   10 2   
    13    9   19 1   
    14   11   12 1   
    15   11   17 1   
    16   11   18 1   
    17   12   13 1   
    18   12   14 1   
    19   19   20 1   
    20   19   27 1   
    21   20   21 1   
    22   20   23 1   
    23   20   28 1   
    24   21   22 2   
    25   21   38 1   
    26   23   24 1   
    27   23   25 1   
    28   23   29 1   
    29   24   26 1   
    30   24   30 1   
    31   24   31 1   
    32   25   32 1   
    33   25   33 1   
    34   25   34 1   
    35   26   35 1   
    36   26   36 1   
    37   26   37 1   
    38   38   39 1   
    39   38   46 1   
    40   39   40 1   
    41   39   42 1   
    42   39   47 1   
    43   40   41 2   
    44   40   50 1   
    45   42   43 1   
    46   42   48 1   
    47   42   49 1   
    48   43   44 1   
    49   43   45 1   
    50   50   51 1   
    51   50   54 1   
    52   51   52 1   
    53   51   55 1   
    54   51   56 1   
    55   52   53 2   
    56   52   57 1   
    57   57   58 1   
    58   57   65 1   
    59   58   59 1   
    60   58   61 1   
    61   58   66 1   
    62   59   60 2   
    63   59   69 1   
    64   61   62 1   
    65   61   67 1   
    66   61   68 1   
    67   62   63 1   
    68   62   64 1   
    69   69   70 1   
    70   69   73 1   
    71   70   71 1   
    72   70   74 1   
    73   70   75 1   
    74   71   72 2   
    75   71   76 1   
    76   76   77 1   
    77   76   85 1   
    78   77   78 1   
    79   77   80 1   
    80   77   86 1   
    81   78   79 2   
    82   78   93 1   
    83   80   81 1   
    84   80   87 1   
    85   80   88 1   
    86   81   82 1   
    87   81   89 1   
    88   81   90 1   
    89   82   83 1   
    90   82   84 2   
    91   83   91 1   
    92   83   92 1   
    93   93   94 1   
    94   93  100 1   
    95   94   95 1   
    96   94   97 1   
    97   94  101 1   
    98   95   96 2   
    99   95  109 1   
   100   97   98 1   
   101   97   99 1   
   102   97  102 1   
   103   98  103 1   
   104   98  104 1   
   105   98  105 1   
   106   99  106 1   
   107   99  107 1   
   108   99  108 1   
   109  109  110 1   
   110  109  117 1   
   111  110  111 1   
   112  110  113 1   
   113  110  118 1   
   114  111  112 2   
   115  111  123 1   
   116  113  114 1   
   117  113  119 1   
   118  113  120 1   
   119  114  115 1   
   120  114  116 2   
   121  115  121 1   
   122  115  122 1   
   123  123  124 1   
   124  123  135 1   
   125  124  125 1   
   126  124  127 1   
   127  124  136 1   
   128  125  126 2   
   129  125  144 1   
   130  127  128 1   
   131  127  137 1   
   132  127  138 1   
   133  128  129 ar  
   134  128  130 ar  
   135  129  131 ar  
   136  129  139 1   
   137  130  132 ar  
   138  130  140 1   
   139  131  133 ar  
   140  131  141 1   
   141  132  133 ar  
   142  132  142 1   
   143  133  134 1   
   144  134  143 1   
   145  144  145 1   
   146  144  153 1   
   147  145  146 1   
   148  145  148 1   
   149  145  154 1   
   150  146  147 2   
   151  146  159 1   
   152  148  149 1   
   153  148  155 1   
   154  148  156 1   
   155  149  150 1   
   156  149  157 1   
   157  149  158 1   
   158  150  151 1   
   159  150  152 1   
   160  159  160 1   
   161  159  168 1   
   162  160  161 1   
   163  160  163 1   
   164  160  169 1   
   165  161  162 2   
   166  161  174 1   
   167  163  164 1   
   168  163  170 1   
   169  163  171 1   
   170  164  165 1   
   171  164  172 1   
   172  164  173 1   
   173  165  166 1   
   174  165  167 1   
   175  174  175 1   
   176  174  179 1   
   177  175  176 1   
   178  175  177 1   
   179  175  178 1   
   180  181  182 1   
   181  181  183 1   
   182  184  185 1   
   183  184  186 1   
   184  187  188 1   
   185  187  189 1   
   186  190  191 1   
   187  190  192 1   
   188  193  194 1   
   189  193  195 1   
@<TRIPOS>SUBSTRUCTURE
     1 MOL         1 TEMP              0 ****  ****    0 ROOT
