@<TRIPOS>MOLECULE
MOL
  189   185     1     0     0
SMALL
resp


@<TRIPOS>ATOM
      1 C1          9.3290    1.3710    1.8210 c3        1 MOL     -0.418589
      2 C2          8.1720    1.0300    0.8820 c         1 MOL      0.767789
      3 O1          7.0580    0.8650    1.3040 o         1 MOL     -0.715635
      4 H1          8.9410    1.5510    2.8240 hc        1 MOL      0.098999
      5 H2         10.0330    0.5390    1.8490 hc        1 MOL      0.098999
      6 H3          9.8370    2.2660    1.4630 hc        1 MOL      0.098999
      7 N1          8.4580    0.7460   -0.2730 n         1 MOL     -0.439265
      8 C3          7.5850    0.3250   -1.3710 c3        1 MOL     -0.034636
      9 C4          7.2210   -1.1750   -1.2480 c         1 MOL      0.710404
     10 O2          7.3720   -1.8730   -2.2620 o         1 MOL     -0.480009
     11 C5          8.2090    0.6400   -2.7220 c3        1 MOL     -0.094733
     12 C6          9.7150    0.1480   -2.9190 c         1 MOL      0.603317
     13 O3          9.9750   -0.6470   -3.8680 o         1 MOL     -0.626668
     14 O4         10.5300    0.3950   -1.9980 o         1 MOL     -0.626668
     15 H4          9.4600    0.7040   -0.4080 hn        1 MOL      0.204436
     16 H5          6.6230    0.8380   -1.3000 h1        1 MOL      0.114212
     17 H6          8.2490    1.7180   -2.8550 hc        1 MOL      0.031946
     18 H7          7.5540    0.2980   -3.5170 hc        1 MOL      0.031946
     19 N2          6.6980   -1.6260   -0.0920 n         1 MOL     -0.790636
     20 C7          6.2610   -3.0450    0.1060 c3        1 MOL      0.201023
     21 C8          4.8600   -3.4110   -0.3720 c         1 MOL      0.510922
     22 O5          4.6690   -4.4990   -0.9240 o         1 MOL     -0.572436
     23 C9          6.5740   -3.4690    1.5550 c3        1 MOL     -0.182787
     24 C10         8.0410   -3.3300    1.8610 c3        1 MOL      0.118895
     25 C11         8.6840   -4.2830    2.9200 c3        1 MOL     -0.037544
     26 C12        10.1570   -3.8480    3.2890 c3        1 MOL     -0.082261
     27 N3         11.1250   -4.6450    2.5750 n4        1 MOL     -0.297211
     28 H8          6.7280   -0.9470    0.6470 hn        1 MOL      0.394438
     29 H9          6.8600   -3.5860   -0.6160 h1        1 MOL      0.044395
     30 H10         6.3540   -4.5380    1.6710 hc        1 MOL      0.056880
     31 H11         5.9930   -2.8190    2.2220 hc        1 MOL      0.056880
     32 H12         8.1720   -2.2910    2.1840 hc        1 MOL      0.000889
     33 H13         8.6750   -3.4810    0.9850 hc        1 MOL      0.000889
     34 H14         8.5450   -5.3020    2.5500 hc        1 MOL      0.043163
     35 H15         8.0770   -4.2180    3.8160 hc        1 MOL      0.043163
     36 H16        10.2550   -3.8970    4.3700 hx        1 MOL      0.112593
     37 H17        10.2920   -2.8810    2.7910 hx        1 MOL      0.112593
     38 H18        11.2490   -4.3230    1.6290 hn        1 MOL      0.315037
     39 H19        12.0800   -4.5910    2.9030 hn        1 MOL      0.315037
     40 H20        10.8280   -5.6130    2.6070 hn        1 MOL      0.315037
     41 N4          3.8860   -2.5590   -0.3030 n         1 MOL     -0.370856
     42 C13         3.7380   -1.3540    0.5970 c3        1 MOL      0.029002
     43 C14         3.5470   -0.0140   -0.2130 c         1 MOL      0.354271
     44 O6          3.1870   -0.0830   -1.3880 o         1 MOL     -0.442661
     45 C15         2.6380   -1.7400    1.6720 c3        1 MOL     -0.417273
     46 C16         1.3150   -2.3150    1.0050 c         1 MOL      0.562046
     47 O7          0.8740   -1.7350   -0.0170 o         1 MOL     -0.591146
     48 O8          0.6900   -3.3770    1.3130 o         1 MOL     -0.591146
     49 H21         2.9820   -2.7910   -0.7040 hn        1 MOL      0.392634
     50 H22         4.6780   -1.1120    1.1080 h1        1 MOL      0.117769
     51 H23         2.2550   -0.8910    2.2450 hc        1 MOL      0.126323
     52 H24         2.9800   -2.5140    2.3660 hc        1 MOL      0.126323
     53 N5          3.6720    1.1920    0.3750 n         1 MOL     -0.328393
     54 C17         3.5510    2.4660   -0.2630 c3        1 MOL     -0.054643
     55 C18         2.1560    2.8200   -0.9120 c         1 MOL      0.492820
     56 O9          1.1320    2.2450   -0.5570 o         1 MOL     -0.556349
     57 H25         4.1570    1.2990    1.2560 hn        1 MOL      0.292544
     58 H26         4.2150    2.3470   -1.1260 h1        1 MOL      0.073570
     59 H27         3.8540    3.3290    0.3270 h1        1 MOL      0.073570
     60 N6          2.1750    3.8950   -1.7120 n         1 MOL     -0.362324
     61 C19         1.0380    4.4050   -2.3500 c3        1 MOL      0.198971
     62 C20         0.8980    5.9140   -2.2900 c         1 MOL      0.446748
     63 O10         1.9060    6.6400   -2.2140 o         1 MOL     -0.524452
     64 C21         0.9090    3.9160   -3.7520 c3        1 MOL     -0.114675
     65 C22         1.1170    2.4410   -4.0330 c         1 MOL      0.609621
     66 O11         0.3740    1.5780   -3.5310 o         1 MOL     -0.663774
     67 O12         2.0670    2.1720   -4.8300 o         1 MOL     -0.663774
     68 H28         3.0610    4.3290   -1.9250 hn        1 MOL      0.263541
     69 H29         0.1650    4.0190   -1.8350 h1        1 MOL     -0.007004
     70 H30         1.5370    4.4880   -4.4200 hc        1 MOL      0.032088
     71 H31        -0.1330    4.1220   -4.0290 hc        1 MOL      0.032088
     72 N7         -0.2930    6.5510   -2.3050 n         1 MOL     -0.543763
     73 C23        -1.6510    5.9860   -1.9750 c3        1 MOL      0.075091
     74 C24        -1.6960    5.4800   -0.5190 c         1 MOL      0.522163
     75 O13        -0.7150    5.5940    0.1900 o         1 MOL     -0.490640
     76 H32        -0.2100    7.5550   -2.3900 hn        1 MOL      0.345941
     77 H33        -1.8210    5.1220   -2.6030 h1        1 MOL      0.038025
     78 H34        -2.4120    6.7500   -2.1610 h1        1 MOL      0.038025
     79 N8         -2.7360    4.7940   -0.1740 n         1 MOL     -0.268515
     80 C25        -3.3140    4.7150    1.1870 c3        1 MOL     -0.040703
     81 C26        -2.7610    3.5000    1.9560 c         1 MOL      0.505081
     82 O14        -3.5700    2.7730    2.5560 o         1 MOL     -0.480417
     83 C27        -4.7820    4.7110    1.0860 c3        1 MOL      0.302090
     84 C28        -5.4870    3.8460    0.0240 c3        1 MOL     -0.320495
     85 O15        -5.2150    6.0770    0.9950 oh        1 MOL     -0.641596
     86 H35        -3.3580    4.6200   -0.9510 hn        1 MOL      0.195915
     87 H36        -3.0460    5.5030    1.8980 h1        1 MOL      0.105218
     88 H37        -5.2380    4.3210    2.0040 h1        1 MOL      0.004777
     89 H38        -6.1200    6.0140    1.3160 ho        1 MOL      0.399291
     90 H39        -6.5200    3.6560    0.3070 hc        1 MOL      0.099084
     91 H40        -5.5050    4.2670   -0.9760 hc        1 MOL      0.099084
     92 H41        -4.9260    2.9080   -0.0140 hc        1 MOL      0.099084
     93 N9         -1.3980    3.2870    1.8900 n         1 MOL     -0.400866
     94 C29        -0.7170    2.2950    2.6630 c3        1 MOL      0.089682
     95 C30        -0.8190    0.8210    2.0980 c         1 MOL      0.401586
     96 O16        -0.4110    0.4570    1.0280 o         1 MOL     -0.418360
     97 C31         0.7100    2.7140    2.9590 c3        1 MOL      0.072489
     98 C32         0.9830    4.2800    3.0560 c3        1 MOL     -0.052414
     99 C33         1.1480    1.9100    4.2020 c3        1 MOL     -0.273417
    100 C34         0.2160    5.0460    4.1140 c3        1 MOL     -0.286875
    101 H42        -0.8820    3.7940    1.1840 hn        1 MOL      0.293289
    102 H43        -1.2070    2.2910    3.6290 h1        1 MOL      0.027926
    103 H44         1.2470    2.3690    2.0770 hc        1 MOL     -0.041456
    104 H45         0.9330    4.7450    2.0690 hc        1 MOL      0.068700
    105 H46         1.9990    4.3630    3.4360 hc        1 MOL      0.068700
    106 H47         2.2330    1.8410    4.2860 hc        1 MOL      0.066261
    107 H48         0.7990    2.3980    5.1040 hc        1 MOL      0.066261
    108 H49         0.8680    0.8600    4.2110 hc        1 MOL      0.066261
    109 H50        -0.8410    5.1600    3.8910 hc        1 MOL      0.072839
    110 H51         0.2130    4.5050    5.0630 hc        1 MOL      0.072839
    111 H52         0.7030    6.0200    4.2200 hc        1 MOL      0.072839
    112 N10        -1.4320    0.0080    2.9690 n         1 MOL     -0.021435
    113 C35        -1.9180   -1.3920    2.7110 c3        1 MOL     -0.534254
    114 C36        -3.4390   -1.5700    2.6050 c         1 MOL      0.540584
    115 O17        -4.0480   -2.6350    2.4720 o         1 MOL     -0.622812
    116 C37        -1.3810   -2.3330    3.8440 c3        1 MOL      0.491072
    117 C38        -1.6990   -1.9980    5.2540 c3        1 MOL     -0.300056
    118 O18        -0.0670   -2.6760    3.7400 oh        1 MOL     -0.610771
    119 H53        -1.6230    0.4400    3.8630 hn        1 MOL      0.179085
    120 H54        -1.4510   -1.6770    1.7650 h1        1 MOL      0.267434
    121 H55        -1.8070   -3.3140    3.6300 h1        1 MOL      0.003563
    122 H56         0.1500   -2.9470    2.8490 ho        1 MOL      0.310805
    123 H57        -2.7530   -1.7310    5.1840 hc        1 MOL      0.064873
    124 H58        -1.4380   -2.8300    5.9060 hc        1 MOL      0.064873
    125 H59        -1.2050   -1.1050    5.6500 hc        1 MOL      0.064873
    126 N11        -4.2130   -0.5300    2.6970 n         1 MOL      0.053809
    127 C39        -5.6760   -0.4540    2.6860 c3        1 MOL     -0.260496
    128 C40        -6.2820   -0.8670    1.3330 c         1 MOL      0.470468
    129 O19        -6.3050   -0.0320    0.4300 o         1 MOL     -0.496450
    130 C41        -5.9930    1.0590    3.0600 c3        1 MOL      0.532871
    131 C42        -7.4530    1.0890    3.6130 c3        1 MOL     -0.484004
    132 O20        -5.2300    1.4610    4.1140 oh        1 MOL     -0.590382
    133 H60        -3.7070    0.3280    2.8550 hn        1 MOL      0.015435
    134 H61        -6.0650   -1.1020    3.4710 h1        1 MOL      0.092656
    135 H62        -5.8090    1.6580    2.1630 h1        1 MOL     -0.043469
    136 H63        -4.6620    2.1870    3.8290 ho        1 MOL      0.334928
    137 H64        -8.2680    0.9480    2.9000 hc        1 MOL      0.112726
    138 H65        -7.5340    0.4370    4.4830 hc        1 MOL      0.112726
    139 H66        -7.6120    2.0850    4.0370 hc        1 MOL      0.112726
    140 N12        -6.7220   -2.1130    1.2160 n         1 MOL     -0.422248
    141 C43        -7.1260   -2.9070    0.0430 c3        1 MOL      0.325033
    142 C44        -6.1760   -2.7430   -1.0670 c         1 MOL      0.444081
    143 O21        -6.4880   -2.3910   -2.2060 o         1 MOL     -0.497263
    144 C45        -8.6000   -2.6730   -0.1680 c3        1 MOL     -0.598013
    145 C46        -9.2880   -3.4470   -1.3480 c3        1 MOL      0.182280
    146 C47       -10.8330   -3.3060   -1.4530 c3        1 MOL     -0.046719
    147 C48       -11.1630   -4.0870   -2.7500 c3        1 MOL      0.014760
    148 N13       -12.5220   -3.7030   -3.2130 n4        1 MOL     -0.077998
    149 H67        -6.7110   -2.6040    2.0950 hn        1 MOL      0.272602
    150 H68        -6.9250   -3.9260    0.3980 h1        1 MOL      0.042900
    151 H69        -8.7930   -1.6090   -0.3710 hc        1 MOL      0.168406
    152 H70        -9.0540   -2.9470    0.7780 hc        1 MOL      0.168406
    153 H71        -9.0210   -4.5000   -1.2330 hc        1 MOL      0.020922
    154 H72        -8.8700   -3.0950   -2.2930 hc        1 MOL      0.020922
    155 H73       -11.1430   -2.2790   -1.6110 hc        1 MOL      0.028839
    156 H74       -11.4340   -3.7560   -0.6480 hc        1 MOL      0.028839
    157 H75       -11.0430   -5.1380   -2.5050 hx        1 MOL      0.065267
    158 H76       -10.5480   -3.7630   -3.5950 hx        1 MOL      0.065267
    159 H77       -12.6820   -2.7150   -3.3530 hn        1 MOL      0.209057
    160 H78       -12.7830   -4.1820   -4.0620 hn        1 MOL      0.209057
    161 H79       -13.2280   -4.0310   -2.5680 hn        1 MOL      0.209057
    162 N14        -4.9280   -3.2070   -0.8260 n         1 MOL     -0.704137
    163 C49        -3.8510   -2.7380   -1.6770 c3        1 MOL      0.697908
    164 C50        -2.5540   -2.6540   -0.7780 c         1 MOL      0.128745
    165 O22        -2.2340   -1.4930   -0.5100 o         1 MOL     -0.587978
    166 C51        -3.6240   -3.5580   -2.9690 c3        1 MOL     -0.281166
    167 C52        -2.3050   -3.3550   -3.8080 c3        1 MOL      0.072130
    168 C53        -2.1040   -1.8880   -4.2050 c         1 MOL      0.577099
    169 O23        -2.5410   -1.5310   -5.3060 o         1 MOL     -0.650210
    170 O24        -1.5870   -1.0520   -3.3710 o         1 MOL     -0.650210
    171 H80        -4.6460   -3.3830    0.1310 hn        1 MOL      0.333011
    172 H81        -4.0430   -1.7350   -2.0570 h1        1 MOL     -0.005404
    173 H82        -4.4080   -3.3100   -3.6860 hc        1 MOL      0.046183
    174 H83        -3.8040   -4.6190   -2.8220 hc        1 MOL      0.046183
    175 H84        -2.3680   -3.9510   -4.7180 hc        1 MOL     -0.011513
    176 H85        -1.4420   -3.7410   -3.2810 hc        1 MOL     -0.011513
    177 N15        -1.9670   -3.6650   -0.2390 n         1 MOL     -0.123510
    178 C54        -2.1590   -5.1140   -0.3650 c3        1 MOL     -0.182593
    179 H86        -1.2230   -5.5790   -0.6740 h1        1 MOL      0.072998
    180 H87        -2.4690   -5.5250    0.5950 h1        1 MOL      0.072998
    181 H88        -2.9270   -5.3160   -1.1120 h1        1 MOL      0.072998
    182 H89        -1.1320   -3.5320    0.3260 hn        1 MOL      0.296730
    183 Ca1        -0.0540    0.0960   -1.6280 Ca        1 MOL      1.728118
    184 O25         1.2490   -1.8650   -3.1160 oh        1 MOL     -1.002304
    185 H90         1.0750   -2.5770   -3.7130 ho        1 MOL      0.456156
    186 H91         1.9230   -1.3360   -3.5520 ho        1 MOL      0.456156
    187 O26        -2.1440    1.7450   -1.7080 oh        1 MOL     -1.002304
    188 H92        -2.9560    1.2340   -1.7300 ho        1 MOL      0.456156
    189 H93        -2.3090    2.4830   -2.2890 ho        1 MOL      0.456156
@<TRIPOS>BOND
     1    1    2 1   
     2    1    4 1   
     3    1    5 1   
     4    1    6 1   
     5    2    3 2   
     6    2    7 1   
     7    7    8 1   
     8    7   15 1   
     9    8    9 1   
    10    8   11 1   
    11    8   16 1   
    12    9   10 2   
    13    9   19 1   
    14   11   12 1   
    15   11   17 1   
    16   11   18 1   
    17   12   13 1   
    18   12   14 1   
    19   19   20 1   
    20   19   28 1   
    21   20   21 1   
    22   20   23 1   
    23   20   29 1   
    24   21   22 2   
    25   21   41 1   
    26   23   24 1   
    27   23   30 1   
    28   23   31 1   
    29   24   25 1   
    30   24   32 1   
    31   24   33 1   
    32   25   26 1   
    33   25   34 1   
    34   25   35 1   
    35   26   27 1   
    36   26   36 1   
    37   26   37 1   
    38   27   38 1   
    39   27   39 1   
    40   27   40 1   
    41   41   42 1   
    42   41   49 1   
    43   42   43 1   
    44   42   45 1   
    45   42   50 1   
    46   43   44 2   
    47   43   53 1   
    48   45   46 1   
    49   45   51 1   
    50   45   52 1   
    51   46   47 1   
    52   46   48 1   
    53   53   54 1   
    54   53   57 1   
    55   54   55 1   
    56   54   58 1   
    57   54   59 1   
    58   55   56 2   
    59   55   60 1   
    60   60   61 1   
    61   60   68 1   
    62   61   62 1   
    63   61   64 1   
    64   61   69 1   
    65   62   63 2   
    66   62   72 1   
    67   64   65 1   
    68   64   70 1   
    69   64   71 1   
    70   65   66 1   
    71   65   67 1   
    72   72   73 1   
    73   72   76 1   
    74   73   74 1   
    75   73   77 1   
    76   73   78 1   
    77   74   75 2   
    78   74   79 1   
    79   79   80 1   
    80   79   86 1   
    81   80   81 1   
    82   80   83 1   
    83   80   87 1   
    84   81   82 2   
    85   81   93 1   
    86   83   84 1   
    87   83   85 1   
    88   83   88 1   
    89   84   90 1   
    90   84   91 1   
    91   84   92 1   
    92   85   89 1   
    93   93   94 1   
    94   93  101 1   
    95   94   95 1   
    96   94   97 1   
    97   94  102 1   
    98   95   96 2   
    99   95  112 1   
   100   97   98 1   
   101   97   99 1   
   102   97  103 1   
   103   98  100 1   
   104   98  104 1   
   105   98  105 1   
   106   99  106 1   
   107   99  107 1   
   108   99  108 1   
   109  100  109 1   
   110  100  110 1   
   111  100  111 1   
   112  112  113 1   
   113  112  119 1   
   114  113  114 1   
   115  113  116 1   
   116  113  120 1   
   117  114  115 2   
   118  114  126 1   
   119  116  117 1   
   120  116  118 1   
   121  116  121 1   
   122  117  123 1   
   123  117  124 1   
   124  117  125 1   
   125  118  122 1   
   126  126  127 1   
   127  126  133 1   
   128  127  128 1   
   129  127  130 1   
   130  127  134 1   
   131  128  129 2   
   132  128  140 1   
   133  130  131 1   
   134  130  132 1   
   135  130  135 1   
   136  131  137 1   
   137  131  138 1   
   138  131  139 1   
   139  132  136 1   
   140  140  141 1   
   141  140  149 1   
   142  141  142 1   
   143  141  144 1   
   144  141  150 1   
   145  142  143 2   
   146  142  162 1   
   147  144  145 1   
   148  144  151 1   
   149  144  152 1   
   150  145  146 1   
   151  145  153 1   
   152  145  154 1   
   153  146  147 1   
   154  146  155 1   
   155  146  156 1   
   156  147  148 1   
   157  147  157 1   
   158  147  158 1   
   159  148  159 1   
   160  148  160 1   
   161  148  161 1   
   162  162  163 1   
   163  162  171 1   
   164  163  164 1   
   165  163  166 1   
   166  163  172 1   
   167  164  165 2   
   168  164  177 1   
   169  166  167 1   
   170  166  173 1   
   171  166  174 1   
   172  167  168 1   
   173  167  175 1   
   174  167  176 1   
   175  168  169 1   
   176  168  170 1   
   177  177  178 1   
   178  177  182 1   
   179  178  179 1   
   180  178  180 1   
   181  178  181 1   
   182  184  185 1   
   183  184  186 1   
   184  187  188 1   
   185  187  189 1   
@<TRIPOS>SUBSTRUCTURE
     1 MOL         1 TEMP              0 ****  ****    0 ROOT
