@<TRIPOS>MOLECULE
MOL
  191   184     1     0     0
SMALL
resp


@<TRIPOS>ATOM
      1 C1         -1.2420   -0.1850   -3.5960 c3        1 MOL     -0.541764
      2 C2         -2.4660   -0.3400   -2.6500 c         1 MOL      0.595724
      3 O1         -2.5170    0.3750   -1.6310 o         1 MOL     -0.558843
      4 H1         -0.3420   -0.0300   -3.0020 hc        1 MOL      0.155787
      5 H2         -1.1290   -1.0870   -4.1960 hc        1 MOL      0.155787
      6 H3         -1.3950    0.6710   -4.2520 hc        1 MOL      0.155787
      7 N1         -3.4850   -1.0830   -3.0380 n         1 MOL     -0.399376
      8 C3         -4.7460   -1.2280   -2.3210 c3        1 MOL      0.045107
      9 C4         -4.6400   -2.3510   -1.3360 c         1 MOL      0.215571
     10 O2         -5.5310   -2.5630   -0.5040 o         1 MOL     -0.453305
     11 C5         -5.9050   -1.4010   -3.2920 c3        1 MOL     -0.357206
     12 C6         -5.6220   -2.4690   -4.3150 c         1 MOL      0.680733
     13 O3         -5.4540   -2.1740   -5.5340 o         1 MOL     -0.678224
     14 O4         -5.3040   -3.6180   -3.9950 o         1 MOL     -0.678224
     15 H4         -3.4200   -1.6140   -3.8910 hn        1 MOL      0.332519
     16 H5         -5.0230   -0.3260   -1.7740 h1        1 MOL      0.201754
     17 H6         -6.2040   -0.4450   -3.7240 hc        1 MOL      0.100671
     18 H7         -6.8820   -1.5610   -2.8490 hc        1 MOL      0.100671
     19 N2         -3.4870   -3.0860   -1.3040 n         1 MOL     -0.222021
     20 C7         -3.1930   -4.2560   -0.4560 c3        1 MOL      0.085880
     21 C8         -3.4930   -4.1110    1.0220 c         1 MOL      0.490155
     22 O5         -3.6640   -5.0280    1.7450 o         1 MOL     -0.497365
     23 C9         -3.4930   -5.5660   -1.1550 c3        1 MOL     -0.366849
     24 C10        -4.9600   -5.8490   -0.9210 c3        1 MOL      0.050560
     25 C11        -5.4030   -6.9470   -1.8960 c3        1 MOL     -0.014125
     26 C12        -6.7790   -7.4520   -1.5330 c3        1 MOL     -0.008836
     27 N3         -7.8350   -6.4480   -1.7510 n4        1 MOL     -0.280439
     28 H8         -2.7860   -2.8830   -2.0090 hn        1 MOL      0.230460
     29 H9         -2.1000   -4.1810   -0.5030 h1        1 MOL      0.085745
     30 H10        -2.9120   -6.2850   -0.5690 hc        1 MOL      0.131227
     31 H11        -3.2760   -5.3960   -2.2090 hc        1 MOL      0.131227
     32 H12        -5.5370   -5.0020   -1.2890 hc        1 MOL      0.045210
     33 H13        -5.1520   -6.1270    0.1090 hc        1 MOL      0.045210
     34 H14        -4.6700   -7.7260   -1.6790 hc        1 MOL      0.048937
     35 H15        -5.2300   -6.5900   -2.9070 hc        1 MOL      0.048937
     36 H16        -6.7860   -7.7090   -0.4720 hx        1 MOL      0.069005
     37 H17        -6.9230   -8.3650   -2.0960 hx        1 MOL      0.069005
     38 H18        -7.9060   -6.2880   -2.7420 hn        1 MOL      0.304939
     39 H19        -8.7830   -6.7620   -1.5780 hn        1 MOL      0.304939
     40 H20        -7.7390   -5.5320   -1.3330 hn        1 MOL      0.304939
     41 N4         -3.5280   -2.8950    1.4980 n         1 MOL     -0.385978
     42 C13        -4.3630   -2.5810    2.6840 c3        1 MOL      0.169653
     43 C14        -5.2350   -1.3010    2.3780 c         1 MOL      0.390565
     44 O6         -4.8320   -0.4370    1.6230 o         1 MOL     -0.352348
     45 C15        -3.5510   -2.4240    3.9240 c3        1 MOL     -0.394212
     46 C16        -2.4610   -1.4070    3.8530 c         1 MOL      0.789608
     47 O7         -1.2790   -1.7910    3.5720 o         1 MOL     -0.745035
     48 O8         -2.6650   -0.1730    3.9410 o         1 MOL     -0.745035
     49 H21        -3.3950   -2.1970    0.7740 hn        1 MOL      0.121381
     50 H22        -5.0030   -3.4250    2.9610 h1        1 MOL      0.067762
     51 H23        -3.1150   -3.3730    4.2590 hc        1 MOL      0.110415
     52 H24        -4.2830   -2.1550    4.6800 hc        1 MOL      0.110415
     53 N5         -6.4290   -1.2830    2.9370 n         1 MOL     -0.422977
     54 C17        -7.4490   -0.3150    2.4980 c3        1 MOL      0.067878
     55 C18        -8.0510   -0.5820    1.0950 c         1 MOL      0.502252
     56 O9         -8.5890   -1.6940    0.9420 o         1 MOL     -0.545780
     57 H25        -6.7230   -2.0160    3.5610 hn        1 MOL      0.320869
     58 H26        -7.0380    0.6870    2.5930 h1        1 MOL      0.021534
     59 H27        -8.3250   -0.3160    3.1490 h1        1 MOL      0.021534
     60 N6         -7.9700    0.2860    0.0910 n         1 MOL     -0.421883
     61 C19        -7.3550    1.6250    0.0850 c3        1 MOL      0.148472
     62 C20        -6.8640    1.9890   -1.3370 c         1 MOL      0.513900
     63 O10        -7.5290    1.7730   -2.3360 o         1 MOL     -0.500072
     64 C21        -8.3570    2.6250    0.6000 c3        1 MOL     -0.276608
     65 C22        -7.7600    3.9820    1.0350 c         1 MOL      0.616144
     66 N7         -7.5160    4.1500    2.3120 n         1 MOL     -0.711721
     67 O11        -7.4530    4.8760    0.2820 o         1 MOL     -0.510361
     68 H28        -8.3170   -0.0880   -0.7800 hn        1 MOL      0.285682
     69 H29        -6.5160    1.6320    0.7860 h1        1 MOL      0.047651
     70 H30        -8.7710    2.2330    1.5260 hc        1 MOL      0.089755
     71 H31        -9.1750    2.7460   -0.1030 hc        1 MOL      0.089755
     72 H32        -7.9560    3.5180    2.9610 hn        1 MOL      0.339060
     73 H33        -7.2510    5.0620    2.6550 hn        1 MOL      0.339060
     74 N8         -5.6620    2.5760   -1.4560 n         1 MOL     -0.499345
     75 C23        -4.6830    2.7420   -0.3480 c3        1 MOL      0.015975
     76 C24        -3.4030    3.5220   -0.8290 c         1 MOL      0.828020
     77 O12        -3.4740    4.3450   -1.7620 o         1 MOL     -0.560622
     78 H34        -5.3750    2.6760   -2.4220 hn        1 MOL      0.330498
     79 H35        -4.4410    1.7230   -0.0520 h1        1 MOL      0.002364
     80 H36        -5.1840    3.2840    0.4650 h1        1 MOL      0.002364
     81 N9         -2.2230    3.3730   -0.1270 n         1 MOL     -0.967593
     82 C25        -0.9490    3.8920   -0.6540 c3        1 MOL      0.379174
     83 C26         0.2620    2.9540   -0.3290 c         1 MOL      0.473201
     84 O13         0.2240    2.0560    0.5790 o         1 MOL     -0.494860
     85 C27        -0.6990    5.2180   -0.0250 c3        1 MOL     -0.254242
     86 C28         0.3720    6.0600   -0.6730 ca        1 MOL      0.072330
     87 C29         1.5130    6.3740   -0.0650 ca        1 MOL     -0.139067
     88 C30         0.0750    6.6040   -1.9140 ca        1 MOL     -0.139067
     89 C31         2.5190    7.1240   -0.7170 ca        1 MOL     -0.306309
     90 C32         0.9720    7.4430   -2.5910 ca        1 MOL     -0.306309
     91 C33         2.2440    7.6440   -1.9970 ca        1 MOL      0.421745
     92 O14         3.0580    8.4860   -2.6790 oh        1 MOL     -0.538476
     93 H37        -2.1580    2.7410    0.6550 hn        1 MOL      0.510537
     94 H38        -0.9610    3.9720   -1.7440 h1        1 MOL      0.028978
     95 H39        -0.3710    5.1610    1.0080 hc        1 MOL      0.095686
     96 H40        -1.6230    5.7980   -0.0250 hc        1 MOL      0.095686
     97 H41         1.7280    6.0410    0.9400 ha        1 MOL      0.137437
     98 H42        -0.9060    6.4410   -2.3380 ha        1 MOL      0.137437
     99 H43         3.4740    7.1800   -0.2140 ha        1 MOL      0.156156
    100 H44         0.7030    7.7260   -3.6050 ha        1 MOL      0.156156
    101 H45         2.6700    8.8520   -3.4700 ho        1 MOL      0.399062
    102 N10         1.2330    3.0410   -1.1880 n         1 MOL     -0.429163
    103 C34         2.5390    2.2900   -1.2190 c3        1 MOL     -0.007812
    104 C35         3.1550    2.3330    0.2130 c         1 MOL      0.186862
    105 O15         2.8200    3.3080    0.9700 o         1 MOL     -0.491933
    106 C36         3.5050    2.8400   -2.3140 c3        1 MOL      0.078018
    107 C37         4.1010    4.1690   -1.9460 c3        1 MOL      0.019945
    108 C38         4.4990    1.7830   -2.7650 c3        1 MOL     -0.248282
    109 C39         4.8240    4.9440   -3.0570 c3        1 MOL     -0.182343
    110 H46         1.1600    3.8330   -1.8060 hn        1 MOL      0.231635
    111 H47         2.3600    1.2430   -1.4590 h1        1 MOL      0.146760
    112 H48         2.9250    3.0620   -3.2080 hc        1 MOL      0.044060
    113 H49         4.7850    4.1450   -1.0970 hc        1 MOL      0.055592
    114 H50         3.2620    4.7040   -1.5040 hc        1 MOL      0.055592
    115 H51         5.1590    2.1490   -3.5460 hc        1 MOL      0.068300
    116 H52         5.1490    1.4470   -1.9560 hc        1 MOL      0.068300
    117 H53         3.8950    0.9280   -3.0870 hc        1 MOL      0.068300
    118 H54         5.7500    4.4290   -3.2830 hc        1 MOL      0.050722
    119 H55         4.1990    5.1460   -3.9260 hc        1 MOL      0.050722
    120 H56         5.1090    5.9390   -2.7220 hc        1 MOL      0.050722
    121 N11         4.0680    1.4080    0.5030 n         1 MOL     -0.135115
    122 C40         4.8330    1.2120    1.6990 c3        1 MOL      0.134300
    123 C41         5.1250   -0.2490    1.9570 c         1 MOL      0.392469
    124 O16         5.2920   -0.9810    0.9750 o         1 MOL     -0.448537
    125 C42         6.0640    2.1220    1.4890 c3        1 MOL      0.045165
    126 O17         6.9040    1.5680    0.5370 oh        1 MOL     -0.549446
    127 H57         3.9960    0.6580   -0.1670 hn        1 MOL      0.205220
    128 H58         4.3900    1.5280    2.6350 h1        1 MOL     -0.057740
    129 H59         6.5440    2.3720    2.4260 h1        1 MOL      0.061545
    130 H60         5.7300    3.0840    1.0960 h1        1 MOL      0.061545
    131 H61         7.8250    1.7270    0.7760 ho        1 MOL      0.402118
    132 N12         5.2420   -0.7680    3.1420 n         1 MOL     -0.321163
    133 C43         5.7160   -2.1350    3.4560 c3        1 MOL      0.061784
    134 C44         7.1120   -2.4040    2.9270 c         1 MOL      0.444177
    135 O18         7.3150   -3.5670    2.6250 o         1 MOL     -0.448564
    136 C45         4.5880   -3.1820    3.1460 c3        1 MOL     -0.187861
    137 H62         4.8840   -0.2180    3.9100 hn        1 MOL      0.154990
    138 H63         5.8300   -2.1710    4.5440 h1        1 MOL      0.072238
    139 H64         3.6110   -2.8630    3.5120 hc        1 MOL      0.076882
    140 H65         4.5100   -3.2080    2.0600 hc        1 MOL      0.076882
    141 H66         4.8350   -4.1500    3.5640 hc        1 MOL      0.076882
    142 N13         7.9780   -1.4380    2.7340 n         1 MOL     -0.411262
    143 C46         9.2900   -1.4170    2.0570 c3        1 MOL      0.182348
    144 C47         9.2100   -2.1070    0.6230 c         1 MOL      0.313331
    145 O19        10.2120   -2.6290    0.1540 o         1 MOL     -0.463456
    146 C48        10.4090   -1.9510    2.8860 c3        1 MOL     -0.248046
    147 H67         7.6260   -0.5110    2.9690 hn        1 MOL      0.222737
    148 H68         9.5020   -0.3510    2.0040 h1        1 MOL      0.031312
    149 H69        10.3810   -1.4850    3.8760 hc        1 MOL      0.080285
    150 H70        10.3610   -3.0320    3.0190 hc        1 MOL      0.080285
    151 H71        11.3720   -1.7950    2.3920 hc        1 MOL      0.080285
    152 N14         8.0750   -1.9390   -0.1050 n         1 MOL      0.084221
    153 C49         7.7720   -2.6520   -1.3460 c3        1 MOL     -0.219018
    154 C50         8.5490   -1.9860   -2.5490 c         1 MOL      0.486267
    155 O20         8.7690   -2.6330   -3.5660 o         1 MOL     -0.464675
    156 C51         6.2870   -2.7610   -1.6760 c3        1 MOL      0.092759
    157 C52         6.0110   -3.6370   -2.8690 c3        1 MOL     -0.394799
    158 C53         6.4760   -5.0450   -2.9230 c         1 MOL      0.762998
    159 O21         6.8870   -5.7270   -1.9260 o         1 MOL     -0.635147
    160 O22         6.3580   -5.7290   -3.9560 o         1 MOL     -0.635147
    161 H72         7.3890   -1.3980    0.4020 hn        1 MOL     -0.033117
    162 H73         8.2080   -3.6370   -1.2560 h1        1 MOL      0.164729
    163 H74         5.7350   -1.8610   -1.9350 hc        1 MOL      0.024880
    164 H75         5.8340   -3.1470   -0.7620 hc        1 MOL      0.024880
    165 H76         6.3450   -3.1200   -3.7680 hc        1 MOL      0.080011
    166 H77         4.9190   -3.5450   -2.9160 hc        1 MOL      0.080011
    167 N15         8.8970   -0.6630   -2.4250 n         1 MOL     -0.263563
    168 C54         9.8160    0.1000   -3.2030 c3        1 MOL     -0.163234
    169 H78        10.8360   -0.1760   -2.9330 h1        1 MOL      0.083403
    170 H79         9.6540   -0.1030   -4.2620 h1        1 MOL      0.083403
    171 H80         9.6640    1.1620   -3.0090 h1        1 MOL      0.083403
    172 H81         8.7290   -0.3430   -1.4770 hn        1 MOL      0.144009
    173 Ca1        -0.4590    0.5240    2.7020 Ca        1 MOL      1.761140
    174 O23        -0.7260    1.2520    5.4490 oh        1 MOL     -0.861463
    175 H82        -1.5000    1.0500    5.9710 ho        1 MOL      0.408468
    176 H83        -0.3450    2.0290    5.8700 ho        1 MOL      0.408468
    177 O24         0.3280   -0.9030    0.7650 oh        1 MOL     -0.861463
    178 H84         0.2480   -1.8300    0.9930 ho        1 MOL      0.408468
    179 H85         1.0800   -0.8770    0.1630 ho        1 MOL      0.408468
    180 O25        -2.4730    0.4710    1.0040 oh        1 MOL     -0.861463
    181 H86        -2.4870    0.3720    0.0470 ho        1 MOL      0.408468
    182 H87        -3.3660    0.3000    1.2750 ho        1 MOL      0.408468
    183 O26        -1.9490    2.7580    2.8100 oh        1 MOL     -0.861463
    184 H88        -1.5280    3.5070    3.2400 ho        1 MOL      0.408468
    185 H89        -2.8930    2.9030    2.9420 ho        1 MOL      0.408468
    186 O27         1.8090   -0.2620    4.0040 oh        1 MOL     -0.861463
    187 H90         1.6770   -0.8100    4.7760 ho        1 MOL      0.408468
    188 H91         2.6840    0.1000    4.1020 ho        1 MOL      0.408468
    189 O28         1.2590    2.5650    3.3920 oh        1 MOL     -0.861463
    190 H92         1.9200    2.6590    4.0710 ho        1 MOL      0.408468
    191 H93         1.5380    3.1700    2.6960 ho        1 MOL      0.408468
@<TRIPOS>BOND
     1    1    2 1   
     2    1    4 1   
     3    1    5 1   
     4    1    6 1   
     5    2    3 2   
     6    2    7 1   
     7    7    8 1   
     8    7   15 1   
     9    8    9 1   
    10    8   11 1   
    11    8   16 1   
    12    9   10 2   
    13    9   19 1   
    14   11   12 1   
    15   11   17 1   
    16   11   18 1   
    17   12   13 1   
    18   12   14 1   
    19   19   20 1   
    20   19   28 1   
    21   20   21 1   
    22   20   23 1   
    23   20   29 1   
    24   21   22 2   
    25   21   41 1   
    26   23   24 1   
    27   23   30 1   
    28   23   31 1   
    29   24   25 1   
    30   24   32 1   
    31   24   33 1   
    32   25   26 1   
    33   25   34 1   
    34   25   35 1   
    35   26   27 1   
    36   26   36 1   
    37   26   37 1   
    38   27   38 1   
    39   27   39 1   
    40   27   40 1   
    41   41   42 1   
    42   41   49 1   
    43   42   43 1   
    44   42   45 1   
    45   42   50 1   
    46   43   44 2   
    47   43   53 1   
    48   45   46 1   
    49   45   51 1   
    50   45   52 1   
    51   46   47 1   
    52   46   48 1   
    53   53   54 1   
    54   53   57 1   
    55   54   55 1   
    56   54   58 1   
    57   54   59 1   
    58   55   56 2   
    59   55   60 1   
    60   60   61 1   
    61   60   68 1   
    62   61   62 1   
    63   61   64 1   
    64   61   69 1   
    65   62   63 2   
    66   62   74 1   
    67   64   65 1   
    68   64   70 1   
    69   64   71 1   
    70   65   66 1   
    71   65   67 2   
    72   66   72 1   
    73   66   73 1   
    74   74   75 1   
    75   74   78 1   
    76   75   76 1   
    77   75   79 1   
    78   75   80 1   
    79   76   77 2   
    80   76   81 1   
    81   81   82 1   
    82   81   93 1   
    83   82   83 1   
    84   82   85 1   
    85   82   94 1   
    86   83   84 2   
    87   83  102 1   
    88   85   86 1   
    89   85   95 1   
    90   85   96 1   
    91   86   87 ar  
    92   86   88 ar  
    93   87   89 ar  
    94   87   97 1   
    95   88   90 ar  
    96   88   98 1   
    97   89   91 ar  
    98   89   99 1   
    99   90   91 ar  
   100   90  100 1   
   101   91   92 1   
   102   92  101 1   
   103  102  103 1   
   104  102  110 1   
   105  103  104 1   
   106  103  106 1   
   107  103  111 1   
   108  104  105 2   
   109  104  121 1   
   110  106  107 1   
   111  106  108 1   
   112  106  112 1   
   113  107  109 1   
   114  107  113 1   
   115  107  114 1   
   116  108  115 1   
   117  108  116 1   
   118  108  117 1   
   119  109  118 1   
   120  109  119 1   
   121  109  120 1   
   122  121  122 1   
   123  121  127 1   
   124  122  123 1   
   125  122  125 1   
   126  122  128 1   
   127  123  124 2   
   128  123  132 1   
   129  125  126 1   
   130  125  129 1   
   131  125  130 1   
   132  126  131 1   
   133  132  133 1   
   134  132  137 1   
   135  133  134 1   
   136  133  136 1   
   137  133  138 1   
   138  134  135 2   
   139  134  142 1   
   140  136  139 1   
   141  136  140 1   
   142  136  141 1   
   143  142  143 1   
   144  142  147 1   
   145  143  144 1   
   146  143  146 1   
   147  143  148 1   
   148  144  145 2   
   149  144  152 1   
   150  146  149 1   
   151  146  150 1   
   152  146  151 1   
   153  152  153 1   
   154  152  161 1   
   155  153  154 1   
   156  153  156 1   
   157  153  162 1   
   158  154  155 2   
   159  154  167 1   
   160  156  157 1   
   161  156  163 1   
   162  156  164 1   
   163  157  158 1   
   164  157  165 1   
   165  157  166 1   
   166  158  159 1   
   167  158  160 1   
   168  167  168 1   
   169  167  172 1   
   170  168  169 1   
   171  168  170 1   
   172  168  171 1   
   173  174  175 1   
   174  174  176 1   
   175  177  178 1   
   176  177  179 1   
   177  180  181 1   
   178  180  182 1   
   179  183  184 1   
   180  183  185 1   
   181  186  187 1   
   182  186  188 1   
   183  189  190 1   
   184  189  191 1   
@<TRIPOS>SUBSTRUCTURE
     1 MOL         1 TEMP              0 ****  ****    0 ROOT
