@<TRIPOS>MOLECULE
MOL
  195   189     1     0     0
SMALL
resp


@<TRIPOS>ATOM
      1 C1          6.3650    2.5180    5.3540 c3        1 MOL     -0.327822
      2 C2          5.6620    1.9090    4.0810 c         1 MOL      0.731175
      3 O1          5.2480    2.6630    3.2280 o         1 MOL     -0.603829
      4 H1          7.2170    1.8980    5.6300 hc        1 MOL      0.080134
      5 H2          6.7080    3.5290    5.1320 hc        1 MOL      0.080134
      6 H3          5.6560    2.5490    6.1820 hc        1 MOL      0.080134
      7 N1          5.6510    0.6520    3.8520 n         1 MOL     -0.476910
      8 C3          5.3500    0.1150    2.5170 c3        1 MOL      0.429296
      9 C4          3.8290    0.1210    2.1100 c         1 MOL     -0.019567
     10 O2          3.5620   -0.4950    1.0870 o         1 MOL     -0.323708
     11 C5          6.0170   -1.2750    2.3760 c3        1 MOL     -0.252348
     12 C6          7.5470   -1.2560    2.5140 c         1 MOL      0.704967
     13 O3          8.0240   -1.4740    3.6490 o         1 MOL     -0.713228
     14 O4          8.2640   -1.0730    1.4730 o         1 MOL     -0.713228
     15 H4          5.8870    0.0010    4.5930 hn        1 MOL      0.237958
     16 H5          5.9590    0.7960    1.9090 h1        1 MOL      0.045768
     17 H6          5.8440   -1.7060    1.3940 hc        1 MOL      0.015857
     18 H7          5.6470   -1.9140    3.1860 hc        1 MOL      0.015857
     19 N2          2.8720    0.6060    2.8930 n         1 MOL     -0.298591
     20 C7          1.4090    0.4050    2.6840 c3        1 MOL      0.075611
     21 C8          0.6860    1.7180    2.6390 c         1 MOL      0.444568
     22 O5          0.9000    2.6560    3.4210 o         1 MOL     -0.498211
     23 C9          0.9800   -0.4740    3.8710 c3        1 MOL     -0.045112
     24 C10         1.5070   -1.9060    3.8410 c3        1 MOL      0.041142
     25 C11         1.0290   -2.6140    5.0610 c3        1 MOL     -0.078301
     26 C12         1.4410   -4.0770    5.1120 c3        1 MOL      0.071541
     27 N3          0.9350   -4.9890    4.0170 n4        1 MOL     -0.404376
     28 H8          3.1330    1.0880    3.7380 hn        1 MOL      0.226015
     29 H9          1.2730   -0.1480    1.7620 h1        1 MOL      0.048790
     30 H10        -0.0960   -0.6620    3.9030 hc        1 MOL      0.026292
     31 H11         1.1690    0.0980    4.7770 hc        1 MOL      0.026292
     32 H12         2.5950   -1.9180    3.9120 hc        1 MOL      0.061243
     33 H13         1.0330   -2.4020    2.9860 hc        1 MOL      0.061243
     34 H14        -0.0550   -2.5350    5.1030 hc        1 MOL      0.051505
     35 H15         1.4360   -2.0590    5.9060 hc        1 MOL      0.051505
     36 H16         1.2610   -4.4730    6.1140 hx        1 MOL      0.063290
     37 H17         2.5080   -4.1010    4.8920 hx        1 MOL      0.063290
     38 H18        -0.0240   -5.2810    4.1680 hn        1 MOL      0.332540
     39 H19         1.0260   -4.5110    3.1290 hn        1 MOL      0.332540
     40 H20         1.4560   -5.8610    4.0040 hn        1 MOL      0.332540
     41 N4         -0.4380    1.8460    1.8900 n         1 MOL     -0.234540
     42 C13        -1.1230    0.8830    0.9810 c3        1 MOL     -0.426278
     43 C14        -1.3550   -0.5000    1.5500 c         1 MOL      0.686701
     44 O6         -0.5550   -1.3500    1.3400 o         1 MOL     -0.584975
     45 C15        -0.5590    0.8430   -0.4320 c3        1 MOL      0.119991
     46 C16        -0.6730    2.1840   -1.1420 c         1 MOL      0.446423
     47 O7         -1.5780    2.9830   -0.8280 o         1 MOL     -0.653763
     48 O8          0.1250    2.4530   -2.0600 o         1 MOL     -0.653763
     49 H21        -0.7570    2.7900    1.7420 hn        1 MOL      0.186264
     50 H22        -2.0940    1.3490    0.8030 h1        1 MOL      0.032475
     51 H23        -1.1100    0.1500   -1.0600 hc        1 MOL      0.081213
     52 H24         0.4950    0.5620   -0.4910 hc        1 MOL      0.081213
     53 N5         -2.4200   -0.7480    2.2980 n         1 MOL     -0.424165
     54 C17        -3.5540    0.1290    2.5030 c3        1 MOL     -0.057800
     55 C18        -4.9270   -0.5830    2.8130 c         1 MOL      0.592029
     56 O9         -4.9160   -1.7250    3.2780 o         1 MOL     -0.573447
     57 H25        -2.5790   -1.7250    2.4430 hn        1 MOL      0.276844
     58 H26        -3.7690    0.6720    1.5850 h1        1 MOL      0.135897
     59 H27        -3.3710    0.7440    3.3770 h1        1 MOL      0.135897
     60 N6         -6.1050    0.0360    2.5840 n         1 MOL     -0.570161
     61 C19        -6.2770    1.4930    2.1880 c3        1 MOL      0.186992
     62 C20        -7.2460    1.7110    1.0810 c         1 MOL      0.469715
     63 O10        -8.1950    0.8900    0.9130 o         1 MOL     -0.468231
     64 C21        -6.7260    2.3040    3.4520 c3        1 MOL     -0.067019
     65 C22        -7.8610    1.8120    4.2700 c         1 MOL      0.728007
     66 O11        -8.4850    0.7620    4.0710 o         1 MOL     -0.696580
     67 O12        -8.1840    2.6380    5.1720 o         1 MOL     -0.696580
     68 H28        -6.9340   -0.5150    2.7420 hn        1 MOL      0.361307
     69 H29        -5.3390    1.9870    1.9230 h1        1 MOL     -0.078769
     70 H30        -7.0140    3.3480    3.3010 hc        1 MOL     -0.027200
     71 H31        -5.8290    2.3310    4.0700 hc        1 MOL     -0.027200
     72 N7         -7.0930    2.7230    0.2390 n         1 MOL     -0.295699
     73 C23        -7.6680    2.7990   -1.1000 c3        1 MOL     -0.231276
     74 C24        -7.2000    1.6740   -2.0710 c         1 MOL      0.618024
     75 O13        -7.8360    1.4290   -3.0710 o         1 MOL     -0.548583
     76 H32        -6.4520    3.4840    0.3930 hn        1 MOL      0.245774
     77 H33        -7.4680    3.8020   -1.4640 h1        1 MOL      0.111546
     78 H34        -8.7490    2.6780   -0.9950 h1        1 MOL      0.111546
     79 N8         -6.0380    1.0120   -1.7890 n         1 MOL     -0.358964
     80 C25        -5.5880   -0.1630   -2.4590 c3        1 MOL      0.013902
     81 C26        -5.1890   -1.0730   -1.2780 c         1 MOL      0.449221
     82 O14        -4.8460   -0.6660   -0.2150 o         1 MOL     -0.424271
     83 C27        -4.3330    0.0900   -3.2960 c3        1 MOL      0.179930
     84 C28        -4.6090    0.7730   -4.6540 c3        1 MOL     -0.151626
     85 O15        -3.7720   -1.1980   -3.6760 oh        1 MOL     -0.648567
     86 H35        -5.4950    1.2560   -0.9780 hn        1 MOL      0.128682
     87 H36        -6.4370   -0.5670   -3.0050 h1        1 MOL      0.128450
     88 H37        -3.4950    0.5640   -2.7700 h1        1 MOL      0.129047
     89 H38        -3.1880   -1.1080   -4.4390 ho        1 MOL      0.407189
     90 H39        -5.4510    0.3870   -5.2210 hc        1 MOL      0.036814
     91 H40        -4.7600    1.8270   -4.4060 hc        1 MOL      0.036814
     92 H41        -3.7230    0.7150   -5.2760 hc        1 MOL      0.036814
     93 N9         -5.2140   -2.3790   -1.4670 n         1 MOL     -0.306453
     94 C29        -4.9950   -3.4050   -0.4740 c3        1 MOL     -0.270642
     95 C30        -3.4960   -3.7800   -0.2940 c         1 MOL      0.538554
     96 O16        -3.2560   -4.4700    0.6700 o         1 MOL     -0.550015
     97 C31        -6.0690   -4.5040   -0.5890 c3        1 MOL      0.336830
     98 C32        -5.7520   -5.4750   -1.7720 c3        1 MOL     -0.120167
     99 C33        -7.4700   -3.8560   -0.7780 c3        1 MOL     -0.200938
    100 C34        -6.7970   -6.6040   -1.9030 c3        1 MOL     -0.213564
    101 H42        -5.5880   -2.7550   -2.3240 hn        1 MOL      0.232275
    102 H43        -5.3630   -2.8650    0.4030 h1        1 MOL      0.141575
    103 H44        -5.9660   -5.0730    0.3380 hc        1 MOL     -0.007161
    104 H45        -4.7590   -5.8690   -1.5660 hc        1 MOL      0.057017
    105 H46        -5.6530   -4.9360   -2.7200 hc        1 MOL      0.057017
    106 H47        -7.5740   -3.7790   -1.8580 hc        1 MOL      0.054398
    107 H48        -8.1290   -4.5930   -0.3160 hc        1 MOL      0.054398
    108 H49        -7.7570   -2.9540   -0.2460 hc        1 MOL      0.054398
    109 H50        -7.6680   -6.2480   -2.4520 hc        1 MOL      0.053665
    110 H51        -6.4410   -7.4420   -2.5030 hc        1 MOL      0.053665
    111 H52        -7.2320   -6.8940   -0.9480 hc        1 MOL      0.053665
    112 N10        -2.5300   -3.3950   -1.1400 n         1 MOL     -0.293912
    113 C35        -1.3380   -4.1940   -1.4980 c3        1 MOL     -0.101831
    114 C36        -0.0790   -3.3770   -1.2760 c         1 MOL      0.557093
    115 O17         0.1300   -2.2100   -1.6340 o         1 MOL     -0.501991
    116 C37        -1.3190   -4.8670   -2.8940 c3        1 MOL      0.482816
    117 C38        -1.4050   -4.0150   -4.1680 c3        1 MOL     -0.258287
    118 O18        -2.3520   -5.7810   -2.9380 oh        1 MOL     -0.622606
    119 H53        -2.8370   -2.7560   -1.8570 hn        1 MOL      0.187645
    120 H54        -1.2010   -5.0570   -0.8490 h1        1 MOL      0.035247
    121 H55        -0.3410   -5.3350   -2.9600 h1        1 MOL     -0.062552
    122 H56        -2.2690   -6.2320   -2.0980 ho        1 MOL      0.372083
    123 H57        -2.2750   -3.3580   -4.0910 hc        1 MOL      0.079551
    124 H58        -0.5400   -3.3510   -4.2490 hc        1 MOL      0.079551
    125 H59        -1.5320   -4.5860   -5.0820 hc        1 MOL      0.079551
    126 N11         0.9680   -4.0190   -0.6730 n         1 MOL     -0.412904
    127 C39         2.3240   -3.3570   -0.4450 c3        1 MOL     -0.404748
    128 C40         3.0260   -2.7420   -1.6350 c         1 MOL      0.871290
    129 O19         2.7920   -3.2310   -2.7030 o         1 MOL     -0.567859
    130 C41         3.2640   -4.2550    0.3180 c3        1 MOL      0.337865
    131 C42         3.6530   -5.4950   -0.4800 c3        1 MOL     -0.455544
    132 O20         2.7740   -4.6190    1.5630 oh        1 MOL     -0.632629
    133 H60         0.8380   -4.9580   -0.3470 hn        1 MOL      0.267297
    134 H61         2.1210   -2.5510    0.2590 h1        1 MOL      0.203948
    135 H62         4.2340   -3.7620    0.4570 h1        1 MOL      0.088604
    136 H63         2.5340   -5.5440    1.4610 ho        1 MOL      0.372206
    137 H64         4.4740   -6.0340   -0.0130 hc        1 MOL      0.124343
    138 H65         2.8010   -6.1700   -0.5920 hc        1 MOL      0.124343
    139 H66         4.1570   -5.3000   -1.4270 hc        1 MOL      0.124343
    140 N12         3.9760   -1.8170   -1.4000 n         1 MOL     -0.623088
    141 C43         4.8400   -1.2490   -2.4170 c3        1 MOL     -0.026800
    142 C44         4.9010    0.3320   -2.3770 c         1 MOL      0.724973
    143 O21         5.2920    0.8940   -3.3760 o         1 MOL     -0.608477
    144 C45         6.2490   -1.8990   -2.2650 c3        1 MOL      0.135322
    145 C46         7.0470   -1.6630   -3.5680 c3        1 MOL      0.046031
    146 C47         8.3210   -2.5340   -3.7250 c3        1 MOL     -0.184749
    147 C48         9.3710   -2.3270   -2.6190 c3        1 MOL      0.144470
    148 N13        10.5710   -3.0710   -2.9200 n4        1 MOL     -0.522506
    149 H67         4.1200   -1.6070   -0.4200 hn        1 MOL      0.266347
    150 H68         4.3990   -1.5880   -3.3600 h1        1 MOL      0.066886
    151 H69         6.0670   -2.9720   -2.2540 hc        1 MOL     -0.024071
    152 H70         6.8430   -1.5430   -1.4220 hc        1 MOL     -0.024071
    153 H71         7.3430   -0.6230   -3.4580 hc        1 MOL      0.019359
    154 H72         6.4820   -1.8050   -4.4990 hc        1 MOL      0.019359
    155 H73         8.8050   -2.3830   -4.6940 hc        1 MOL      0.046943
    156 H74         8.0580   -3.5890   -3.7700 hc        1 MOL      0.046943
    157 H75         8.8070   -2.5450   -1.7110 hx        1 MOL      0.081184
    158 H76         9.6410   -1.2790   -2.4930 hx        1 MOL      0.081184
    159 H77        10.2680   -4.0250   -2.7820 hn        1 MOL      0.354833
    160 H78        10.9110   -2.8080   -3.8320 hn        1 MOL      0.354833
    161 H79        11.3050   -2.9920   -2.2240 hn        1 MOL      0.354833
    162 N14         4.4020    0.9860   -1.2950 n         1 MOL     -0.200779
    163 C49         4.3310    2.4170   -1.2300 c3        1 MOL     -0.932478
    164 C50         5.7060    3.1060   -0.9640 c         1 MOL      0.741213
    165 O22         6.6110    2.5920   -0.2720 o         1 MOL     -0.537333
    166 C51         3.3550    2.8110   -0.0470 c3        1 MOL      0.672873
    167 C52         2.9610    4.3200    0.0860 c3        1 MOL     -0.662734
    168 C53         2.5470    5.0570   -1.1660 c         1 MOL      0.878750
    169 O23         3.3440    5.1890   -2.1680 o         1 MOL     -0.769631
    170 O24         1.3410    5.4550   -1.1900 o         1 MOL     -0.769631
    171 H80         3.9360    0.3890   -0.6300 hn        1 MOL      0.148092
    172 H81         3.8590    2.7560   -2.1590 h1        1 MOL      0.337384
    173 H82         3.7710    2.4750    0.8960 hc        1 MOL     -0.007701
    174 H83         2.3880    2.3710   -0.2830 hc        1 MOL     -0.007701
    175 H84         3.7310    4.8430    0.6600 hc        1 MOL      0.119394
    176 H85         2.1300    4.3170    0.7800 hc        1 MOL      0.119394
    177 N15         5.9450    4.3100   -1.5090 n         1 MOL     -0.359057
    178 C54         7.1660    5.0950   -1.4480 c3        1 MOL     -0.213835
    179 H86         6.9330    6.1430   -1.6340 h1        1 MOL      0.092581
    180 H87         7.6150    4.9930   -0.4600 h1        1 MOL      0.092581
    181 H88         7.8650    4.7380   -2.2050 h1        1 MOL      0.092581
    182 H89         5.2130    4.6670   -2.0990 hn        1 MOL      0.353739
    183 Ca1        -1.2400    5.4770   -1.1930 Ca        1 MOL      1.765948
    184 O25        -0.5610    7.7530    0.0060 oh        1 MOL     -0.877567
    185 H90        -1.0710    8.3950    0.5000 ho        1 MOL      0.438023
    186 H91         0.2920    8.1730   -0.1200 ho        1 MOL      0.438023
    187 O26        -3.1320    4.4670   -2.8800 oh        1 MOL     -0.877567
    188 H92        -4.0290    4.3820   -3.2060 ho        1 MOL      0.438023
    189 H93        -2.5890    4.2640   -3.6330 ho        1 MOL      0.438023
    190 O27        -0.1700    6.3990   -3.4380 oh        1 MOL     -0.877567
    191 H94         0.4960    5.8780   -3.8890 ho        1 MOL      0.438023
    192 H95         0.0030    7.3010   -3.7050 ho        1 MOL      0.438023
    193 O28        -2.8680    7.6360   -2.0990 oh        1 MOL     -0.877567
    194 H96        -3.3440    7.7780   -2.9280 ho        1 MOL      0.438023
    195 H97        -3.2610    8.2550   -1.4940 ho        1 MOL      0.438023
@<TRIPOS>BOND
     1    1    2 1   
     2    1    4 1   
     3    1    5 1   
     4    1    6 1   
     5    2    3 2   
     6    2    7 1   
     7    7    8 1   
     8    7   15 1   
     9    8    9 1   
    10    8   11 1   
    11    8   16 1   
    12    9   10 2   
    13    9   19 1   
    14   11   12 1   
    15   11   17 1   
    16   11   18 1   
    17   12   13 1   
    18   12   14 1   
    19   19   20 1   
    20   19   28 1   
    21   20   21 1   
    22   20   23 1   
    23   20   29 1   
    24   21   22 2   
    25   21   41 1   
    26   23   24 1   
    27   23   30 1   
    28   23   31 1   
    29   24   25 1   
    30   24   32 1   
    31   24   33 1   
    32   25   26 1   
    33   25   34 1   
    34   25   35 1   
    35   26   27 1   
    36   26   36 1   
    37   26   37 1   
    38   27   38 1   
    39   27   39 1   
    40   27   40 1   
    41   41   42 1   
    42   41   49 1   
    43   42   43 1   
    44   42   45 1   
    45   42   50 1   
    46   43   44 2   
    47   43   53 1   
    48   45   46 1   
    49   45   51 1   
    50   45   52 1   
    51   46   47 1   
    52   46   48 1   
    53   53   54 1   
    54   53   57 1   
    55   54   55 1   
    56   54   58 1   
    57   54   59 1   
    58   55   56 2   
    59   55   60 1   
    60   60   61 1   
    61   60   68 1   
    62   61   62 1   
    63   61   64 1   
    64   61   69 1   
    65   62   63 2   
    66   62   72 1   
    67   64   65 1   
    68   64   70 1   
    69   64   71 1   
    70   65   66 1   
    71   65   67 1   
    72   72   73 1   
    73   72   76 1   
    74   73   74 1   
    75   73   77 1   
    76   73   78 1   
    77   74   75 2   
    78   74   79 1   
    79   79   80 1   
    80   79   86 1   
    81   80   81 1   
    82   80   83 1   
    83   80   87 1   
    84   81   82 2   
    85   81   93 1   
    86   83   84 1   
    87   83   85 1   
    88   83   88 1   
    89   84   90 1   
    90   84   91 1   
    91   84   92 1   
    92   85   89 1   
    93   93   94 1   
    94   93  101 1   
    95   94   95 1   
    96   94   97 1   
    97   94  102 1   
    98   95   96 2   
    99   95  112 1   
   100   97   98 1   
   101   97   99 1   
   102   97  103 1   
   103   98  100 1   
   104   98  104 1   
   105   98  105 1   
   106   99  106 1   
   107   99  107 1   
   108   99  108 1   
   109  100  109 1   
   110  100  110 1   
   111  100  111 1   
   112  112  113 1   
   113  112  119 1   
   114  113  114 1   
   115  113  116 1   
   116  113  120 1   
   117  114  115 2   
   118  114  126 1   
   119  116  117 1   
   120  116  118 1   
   121  116  121 1   
   122  117  123 1   
   123  117  124 1   
   124  117  125 1   
   125  118  122 1   
   126  126  127 1   
   127  126  133 1   
   128  127  128 1   
   129  127  130 1   
   130  127  134 1   
   131  128  129 2   
   132  128  140 1   
   133  130  131 1   
   134  130  132 1   
   135  130  135 1   
   136  131  137 1   
   137  131  138 1   
   138  131  139 1   
   139  132  136 1   
   140  140  141 1   
   141  140  149 1   
   142  141  142 1   
   143  141  144 1   
   144  141  150 1   
   145  142  143 2   
   146  142  162 1   
   147  144  145 1   
   148  144  151 1   
   149  144  152 1   
   150  145  146 1   
   151  145  153 1   
   152  145  154 1   
   153  146  147 1   
   154  146  155 1   
   155  146  156 1   
   156  147  148 1   
   157  147  157 1   
   158  147  158 1   
   159  148  159 1   
   160  148  160 1   
   161  148  161 1   
   162  162  163 1   
   163  162  171 1   
   164  163  164 1   
   165  163  166 1   
   166  163  172 1   
   167  164  165 2   
   168  164  177 1   
   169  166  167 1   
   170  166  173 1   
   171  166  174 1   
   172  167  168 1   
   173  167  175 1   
   174  167  176 1   
   175  168  169 1   
   176  168  170 1   
   177  177  178 1   
   178  177  182 1   
   179  178  179 1   
   180  178  180 1   
   181  178  181 1   
   182  184  185 1   
   183  184  186 1   
   184  187  188 1   
   185  187  189 1   
   186  190  191 1   
   187  190  192 1   
   188  193  194 1   
   189  193  195 1   
@<TRIPOS>SUBSTRUCTURE
     1 MOL         1 TEMP              0 ****  ****    0 ROOT
