@<TRIPOS>MOLECULE
MOL
  181   177     1     0     0
SMALL
resp


@<TRIPOS>ATOM
      1 C1         -4.0470   -2.1230   -3.0840 c3        1 MOL     -0.407757
      2 C2         -5.3490   -1.3440   -2.7720 c         1 MOL      0.697277
      3 O1         -5.3540   -0.3810   -2.0310 o         1 MOL     -0.573538
      4 H1         -3.6350   -1.7780   -4.0320 hc        1 MOL      0.113816
      5 H2         -3.3200   -1.9510   -2.2890 hc        1 MOL      0.113816
      6 H3         -4.2670   -3.1890   -3.1510 hc        1 MOL      0.113816
      7 N1         -6.5060   -1.6810   -3.3540 n         1 MOL     -0.554716
      8 C3         -7.8320   -1.1270   -3.1190 c3        1 MOL      0.122614
      9 C4         -8.2390   -1.3440   -1.6400 c         1 MOL      0.587098
     10 O2         -8.3680   -2.4870   -1.2220 o         1 MOL     -0.571585
     11 C5         -8.8330   -1.7380   -4.0590 c3        1 MOL     -0.137218
     12 C6        -10.2150   -1.1660   -3.8870 c         1 MOL      0.699043
     13 O3        -10.3750   -0.0980   -3.2240 o         1 MOL     -0.734172
     14 O4        -11.0920   -1.8540   -4.4800 o         1 MOL     -0.734172
     15 H4         -6.5240   -2.5190   -3.9180 hn        1 MOL      0.265066
     16 H5         -7.7200   -0.0430   -3.1960 h1        1 MOL      0.019533
     17 H6         -8.9860   -2.8110   -3.9740 hc        1 MOL      0.027017
     18 H7         -8.5390   -1.5180   -5.0820 hc        1 MOL      0.027017
     19 N2         -8.4260   -0.2740   -0.8780 n         1 MOL     -0.398286
     20 C7         -8.7130   -0.2490    0.5610 c3        1 MOL      0.168422
     21 C8         -7.4370   -0.4500    1.4190 c         1 MOL      0.511513
     22 O5         -7.5650   -0.7700    2.6010 o         1 MOL     -0.591110
     23 C9         -9.3890    1.0360    0.9380 c3        1 MOL     -0.175067
     24 H8         -8.4530    0.6360   -1.3280 hn        1 MOL      0.246663
     25 H9         -9.3790   -1.0740    0.8200 h1        1 MOL      0.069852
     26 H10       -10.3650    1.2030    0.4840 hc        1 MOL      0.043362
     27 H11        -9.6180    1.0080    2.0000 hc        1 MOL      0.043362
     28 H12        -8.7440    1.8940    0.7570 hc        1 MOL      0.043362
     29 N3         -6.2570   -0.3950    0.8450 n         1 MOL     -0.532809
     30 C10        -5.0270   -0.8430    1.3850 c3        1 MOL      0.007873
     31 C11        -4.5660   -0.3320    2.7460 c         1 MOL      0.663606
     32 O6         -3.5360   -0.7990    3.2280 o         1 MOL     -0.627386
     33 C12        -4.9900   -2.4130    1.2580 c3        1 MOL      0.002509
     34 C13        -3.5950   -3.0380    1.1680 c         1 MOL      0.624416
     35 O7         -3.4830   -4.1950    1.6160 o         1 MOL     -0.731827
     36 O8         -2.6260   -2.5310    0.5270 o         1 MOL     -0.731827
     37 H13        -6.1800   -0.2190   -0.1460 hn        1 MOL      0.275764
     38 H14        -4.2270   -0.5080    0.7310 h1        1 MOL      0.088354
     39 H15        -5.4870   -2.7140    0.3330 hc        1 MOL      0.040615
     40 H16        -5.6280   -2.8350    2.0310 hc        1 MOL      0.040615
     41 N4         -5.2390    0.6000    3.3800 n         1 MOL     -0.282642
     42 C14        -4.9840    1.2090    4.7000 c3        1 MOL     -0.079634
     43 C15        -3.9380    2.1940    4.8330 c         1 MOL      0.432874
     44 O9         -3.4360    2.4350    5.9200 o         1 MOL     -0.511748
     45 H17        -6.1140    0.8720    2.9380 hn        1 MOL      0.244906
     46 H18        -4.7910    0.4040    5.4250 h1        1 MOL      0.088267
     47 H19        -5.9130    1.5530    5.1450 h1        1 MOL      0.088267
     48 N5         -3.4500    2.5950    3.6740 n         1 MOL     -0.332374
     49 C16        -2.2680    3.5190    3.6250 c3        1 MOL      0.050081
     50 C17        -2.3730    4.4700    2.4700 c         1 MOL      0.394674
     51 O10        -3.1010    4.2360    1.4540 o         1 MOL     -0.484606
     52 C18        -1.0300    2.6940    3.4420 c3        1 MOL     -0.060540
     53 C19        -0.6220    1.8650    4.5860 c         1 MOL      0.665037
     54 N6         -1.1490    0.6400    4.6590 n         1 MOL     -0.858975
     55 O11         0.0500    2.1760    5.5180 o         1 MOL     -0.574383
     56 H20        -3.8560    2.1550    2.8560 hn        1 MOL      0.187755
     57 H21        -2.0790    4.0510    4.5530 h1        1 MOL      0.050762
     58 H22        -0.1670    3.2910    3.1650 hc        1 MOL      0.055758
     59 H23        -1.1630    1.9970    2.6090 hc        1 MOL      0.055758
     60 H24        -1.8560    0.2910    4.0160 hn        1 MOL      0.380196
     61 H25        -0.9500    0.0910    5.4790 hn        1 MOL      0.380196
     62 N7         -1.6400    5.5650    2.5790 n         1 MOL     -0.246175
     63 C20        -1.4480    6.5850    1.6350 c3        1 MOL     -0.254363
     64 C21        -0.0330    6.4140    0.9860 c         1 MOL      0.590394
     65 O12         0.9160    5.9330    1.5950 o         1 MOL     -0.474351
     66 H26        -1.0750    5.5810    3.4120 hn        1 MOL      0.246044
     67 H27        -1.4730    7.5130    2.1960 h1        1 MOL      0.130370
     68 H28        -2.2930    6.5470    0.9510 h1        1 MOL      0.130370
     69 N8          0.2440    6.8130   -0.2720 n         1 MOL     -0.422276
     70 C22         1.5610    6.8190   -0.9380 c3        1 MOL     -0.253976
     71 C23         1.9520    5.4250   -1.5150 c         1 MOL      0.625362
     72 O13         3.1070    5.0170   -1.5300 o         1 MOL     -0.590395
     73 C24         1.7480    7.9770   -1.8950 c3        1 MOL      0.403565
     74 C25         1.0310    7.7370   -3.1810 c3        1 MOL     -0.326993
     75 O14         1.2780    9.1750   -1.3570 oh        1 MOL     -0.582814
     76 H29        -0.4720    7.3400   -0.7520 hn        1 MOL      0.246575
     77 H30         2.3630    6.9920   -0.2180 h1        1 MOL      0.135688
     78 H31         2.8110    8.1730   -2.0550 h1        1 MOL      0.055865
     79 H32         0.3890    8.9780   -1.0800 ho        1 MOL      0.344896
     80 H33         1.1960    8.6350   -3.7720 hc        1 MOL      0.078743
     81 H34         1.3940    6.8900   -3.7600 hc        1 MOL      0.078743
     82 H35        -0.0540    7.6890   -3.0640 hc        1 MOL      0.078743
     83 N9          0.9460    4.7140   -2.0530 n         1 MOL     -0.392373
     84 C26         1.1490    3.3860   -2.7090 c3        1 MOL      0.018567
     85 C27         1.0760    2.2800   -1.6590 c         1 MOL      0.708831
     86 O15         0.2550    2.3390   -0.7230 o         1 MOL     -0.516901
     87 C28         0.0600    3.2970   -3.7930 c3        1 MOL      0.060075
     88 C29         0.1680    4.4860   -4.8930 c3        1 MOL     -0.191944
     89 C30         0.2430    1.9910   -4.5000 c3        1 MOL     -0.047074
     90 C31         1.4910    4.6810   -5.7040 c3        1 MOL     -0.067453
     91 H36        -0.0150    5.0190   -2.0390 hn        1 MOL      0.230424
     92 H37         2.1020    3.3580   -3.2400 h1        1 MOL      0.076801
     93 H38        -0.9050    3.3430   -3.2830 hc        1 MOL      0.051823
     94 H39        -0.1440    5.4540   -4.4950 hc        1 MOL      0.061986
     95 H40        -0.5910    4.3460   -5.6630 hc        1 MOL      0.061986
     96 H41         0.0630    1.1120   -3.8900 hc        1 MOL      0.012890
     97 H42        -0.5040    1.9570   -5.3010 hc        1 MOL      0.012890
     98 H43         1.2380    1.8610   -4.9270 hc        1 MOL      0.012890
     99 H44         1.3720    5.0850   -6.7080 hc        1 MOL      0.025388
    100 H45         2.0990    5.4670   -5.2540 hc        1 MOL      0.025388
    101 H46         2.1320    3.7990   -5.6600 hc        1 MOL      0.025388
    102 N10         1.8390    1.1520   -1.8950 n         1 MOL     -0.808789
    103 C32         1.8640   -0.0170   -0.9700 c3        1 MOL      0.315561
    104 C33         3.2630   -0.3060   -0.3260 c         1 MOL      0.532399
    105 O16         3.5290   -1.3980    0.2070 o         1 MOL     -0.563299
    106 C34         1.2190   -1.2010   -1.7340 c3        1 MOL     -0.029432
    107 C35         0.8270   -2.2510   -0.7280 c         1 MOL      0.755958
    108 O17         0.6150   -2.0170    0.5000 o         1 MOL     -0.782112
    109 O18         0.5300   -3.3720   -1.1990 o         1 MOL     -0.782112
    110 H47         2.4360    1.0870   -2.7100 hn        1 MOL      0.346141
    111 H48         1.2340    0.2470   -0.1200 h1        1 MOL      0.027259
    112 H49         1.9650   -1.6740   -2.3750 hc        1 MOL      0.009997
    113 H50         0.3600   -0.9380   -2.3450 hc        1 MOL      0.009997
    114 N11         4.2070    0.6090   -0.4460 n         1 MOL     -0.408175
    115 C36         5.5630    0.5350    0.1620 c3        1 MOL      0.219055
    116 C37         6.3830   -0.6780   -0.3000 c         1 MOL      0.274364
    117 O19         6.5910   -0.8310   -1.5100 o         1 MOL     -0.485291
    118 C38         6.2610    1.9090    0.0730 c3        1 MOL     -0.150712
    119 C39         7.6600    1.9590    0.6910 ca        1 MOL     -0.024279
    120 C40         7.8570    2.6220    1.9170 ca        1 MOL     -0.070032
    121 C41         8.6640    1.2140    0.1460 ca        1 MOL     -0.070032
    122 C42         9.0540    2.6210    2.6270 ca        1 MOL     -0.172530
    123 C43         9.9320    1.2990    0.8170 ca        1 MOL     -0.172530
    124 C44        10.0950    1.8780    2.0640 ca        1 MOL     -0.048073
    125 H51         4.0070    1.3950   -1.0400 hn        1 MOL      0.213535
    126 H52         5.2810    0.5130    1.2220 h1        1 MOL      0.012784
    127 H53         5.5840    2.6050    0.5720 hc        1 MOL      0.085806
    128 H54         6.3910    2.2260   -0.9590 hc        1 MOL      0.085806
    129 H55         7.0470    3.1510    2.3940 ha        1 MOL      0.100478
    130 H56         8.5390    0.6930   -0.7900 ha        1 MOL      0.100478
    131 H57         9.1580    3.0840    3.6030 ha        1 MOL      0.116639
    132 H58        10.8070    0.8940    0.3310 ha        1 MOL      0.116639
    133 H59        11.0590    1.8650    2.5540 ha        1 MOL      0.081396
    134 N12         6.9190   -1.5290    0.5590 n         1 MOL      0.132112
    135 C45         7.8250   -2.5740    0.1670 c3        1 MOL      0.077212
    136 C46         7.1620   -3.6350   -0.7300 c         1 MOL      0.184824
    137 O20         7.8790   -4.2970   -1.4380 o         1 MOL     -0.473962
    138 C47         8.1630   -3.3890    1.4880 c3        1 MOL     -0.065335
    139 C48         8.1120   -2.3120    2.5460 c3        1 MOL     -0.022323
    140 C49         6.9260   -1.4340    2.0490 c3        1 MOL     -0.319354
    141 H60         8.6920   -2.1830   -0.3460 h1        1 MOL      0.050647
    142 H61         7.3920   -4.1130    1.7610 hc        1 MOL      0.050751
    143 H62         9.1510   -3.8440    1.5880 hc        1 MOL      0.050751
    144 H63         7.8120   -2.6980    3.5220 hc        1 MOL      0.030130
    145 H64         9.0340   -1.7250    2.5620 hc        1 MOL      0.030130
    146 H65         6.1360   -2.1030    2.3800 h1        1 MOL      0.127127
    147 H66         6.9890   -0.4040    2.4020 h1        1 MOL      0.127127
    148 N13         5.8650   -3.8320   -0.6500 n         1 MOL     -0.107989
    149 C50         5.1340   -4.5630   -1.6860 c3        1 MOL     -0.324420
    150 C51         5.1690   -3.9230   -3.0290 c         1 MOL      0.516498
    151 O21         5.1710   -4.5560   -4.0670 o         1 MOL     -0.562707
    152 C52         3.6740   -4.6850   -1.1830 c3        1 MOL      0.156225
    153 C53         3.5130   -5.4060    0.2260 c3        1 MOL     -0.232299
    154 C54         2.0540   -5.2910    0.7240 c         1 MOL      0.784854
    155 O22         1.1140   -5.9580    0.2280 o         1 MOL     -0.757580
    156 O23         1.8490   -4.6530    1.7840 o         1 MOL     -0.757580
    157 H67         5.3110   -3.3930    0.0800 hn        1 MOL      0.258321
    158 H68         5.5610   -5.5580   -1.7190 h1        1 MOL      0.162313
    159 H69         3.0890   -5.2790   -1.8760 hc        1 MOL      0.013176
    160 H70         3.1400   -3.7350   -1.2840 hc        1 MOL      0.013176
    161 H71         4.1440   -4.8930    0.9620 hc        1 MOL      0.028383
    162 H72         3.7940   -6.4480    0.1280 hc        1 MOL      0.028383
    163 N14         5.3280   -2.5810   -3.0990 n         1 MOL     -0.011856
    164 C55         5.1940   -1.8410   -4.3300 c3        1 MOL     -0.217184
    165 H73         4.7720   -2.4880   -5.0990 h1        1 MOL      0.071707
    166 H74         4.5350   -0.9870   -4.1720 h1        1 MOL      0.071707
    167 H75         6.1740   -1.4890   -4.6520 h1        1 MOL      0.071707
    168 H76         5.3380   -2.0910   -2.2170 hn        1 MOL      0.059414
    169 Ca1        -0.7040   -4.1710    1.0090 Ca        1 MOL      1.711139
    170 O24        -0.5930   -5.6380    3.5550 oh        1 MOL     -0.728048
    171 H77        -1.3190   -5.7750    4.1590 ho        1 MOL      0.363989
    172 H78         0.1780   -5.5380    4.1260 ho        1 MOL      0.363989
    173 O25        -1.3060   -2.7370    3.2280 oh        1 MOL     -0.728048
    174 H79        -0.7120   -2.6340    3.9710 ho        1 MOL      0.363989
    175 H80        -1.9190   -2.0060    3.2980 ho        1 MOL      0.363989
    176 O26        -1.8570   -5.0730   -1.4730 oh        1 MOL     -0.728048
    177 H81        -1.4590   -4.3210   -1.9020 ho        1 MOL      0.363989
    178 H82        -2.3220   -5.5270   -2.1640 ho        1 MOL      0.363989
    179 O27        -1.7180   -6.7910    1.0290 oh        1 MOL     -0.728048
    180 H83        -2.5440   -7.1230    0.6720 ho        1 MOL      0.363989
    181 H84        -1.7140   -7.1230    1.9370 ho        1 MOL      0.363989
@<TRIPOS>BOND
     1    1    2 1   
     2    1    4 1   
     3    1    5 1   
     4    1    6 1   
     5    2    3 2   
     6    2    7 1   
     7    7    8 1   
     8    7   15 1   
     9    8    9 1   
    10    8   11 1   
    11    8   16 1   
    12    9   10 2   
    13    9   19 1   
    14   11   12 1   
    15   11   17 1   
    16   11   18 1   
    17   12   13 1   
    18   12   14 1   
    19   19   20 1   
    20   19   24 1   
    21   20   21 1   
    22   20   23 1   
    23   20   25 1   
    24   21   22 2   
    25   21   29 1   
    26   23   26 1   
    27   23   27 1   
    28   23   28 1   
    29   29   30 1   
    30   29   37 1   
    31   30   31 1   
    32   30   33 1   
    33   30   38 1   
    34   31   32 2   
    35   31   41 1   
    36   33   34 1   
    37   33   39 1   
    38   33   40 1   
    39   34   35 1   
    40   34   36 1   
    41   41   42 1   
    42   41   45 1   
    43   42   43 1   
    44   42   46 1   
    45   42   47 1   
    46   43   44 2   
    47   43   48 1   
    48   48   49 1   
    49   48   56 1   
    50   49   50 1   
    51   49   52 1   
    52   49   57 1   
    53   50   51 2   
    54   50   62 1   
    55   52   53 1   
    56   52   58 1   
    57   52   59 1   
    58   53   54 1   
    59   53   55 2   
    60   54   60 1   
    61   54   61 1   
    62   62   63 1   
    63   62   66 1   
    64   63   64 1   
    65   63   67 1   
    66   63   68 1   
    67   64   65 2   
    68   64   69 1   
    69   69   70 1   
    70   69   76 1   
    71   70   71 1   
    72   70   73 1   
    73   70   77 1   
    74   71   72 2   
    75   71   83 1   
    76   73   74 1   
    77   73   75 1   
    78   73   78 1   
    79   74   80 1   
    80   74   81 1   
    81   74   82 1   
    82   75   79 1   
    83   83   84 1   
    84   83   91 1   
    85   84   85 1   
    86   84   87 1   
    87   84   92 1   
    88   85   86 2   
    89   85  102 1   
    90   87   88 1   
    91   87   89 1   
    92   87   93 1   
    93   88   90 1   
    94   88   94 1   
    95   88   95 1   
    96   89   96 1   
    97   89   97 1   
    98   89   98 1   
    99   90   99 1   
   100   90  100 1   
   101   90  101 1   
   102  102  103 1   
   103  102  110 1   
   104  103  104 1   
   105  103  106 1   
   106  103  111 1   
   107  104  105 2   
   108  104  114 1   
   109  106  107 1   
   110  106  112 1   
   111  106  113 1   
   112  107  108 1   
   113  107  109 1   
   114  114  115 1   
   115  114  125 1   
   116  115  116 1   
   117  115  118 1   
   118  115  126 1   
   119  116  117 2   
   120  116  134 1   
   121  118  119 1   
   122  118  127 1   
   123  118  128 1   
   124  119  120 ar  
   125  119  121 ar  
   126  120  122 ar  
   127  120  129 1   
   128  121  123 ar  
   129  121  130 1   
   130  122  124 ar  
   131  122  131 1   
   132  123  124 ar  
   133  123  132 1   
   134  124  133 1   
   135  134  135 1   
   136  134  140 1   
   137  135  136 1   
   138  135  138 1   
   139  135  141 1   
   140  136  137 2   
   141  136  148 1   
   142  138  139 1   
   143  138  142 1   
   144  138  143 1   
   145  139  140 1   
   146  139  144 1   
   147  139  145 1   
   148  140  146 1   
   149  140  147 1   
   150  148  149 1   
   151  148  157 1   
   152  149  150 1   
   153  149  152 1   
   154  149  158 1   
   155  150  151 2   
   156  150  163 1   
   157  152  153 1   
   158  152  159 1   
   159  152  160 1   
   160  153  154 1   
   161  153  161 1   
   162  153  162 1   
   163  154  155 1   
   164  154  156 1   
   165  163  164 1   
   166  163  168 1   
   167  164  165 1   
   168  164  166 1   
   169  164  167 1   
   170  170  171 1   
   171  170  172 1   
   172  173  174 1   
   173  173  175 1   
   174  176  177 1   
   175  176  178 1   
   176  179  180 1   
   177  179  181 1   
@<TRIPOS>SUBSTRUCTURE
     1 MOL         1 TEMP              0 ****  ****    0 ROOT
