@<TRIPOS>MOLECULE
MOL
  189   185     1     0     0
SMALL
resp


@<TRIPOS>ATOM
      1 C1          3.8010    4.4210   -3.2050 c3        1 MOL     -0.440618
      2 C2          4.6670    3.7680   -2.0870 c         1 MOL      0.977320
      3 O1          4.2580    3.4530   -0.9870 o         1 MOL     -0.761879
      4 H1          4.0360    5.4830   -3.2710 hc        1 MOL      0.103983
      5 H2          4.0170    3.9410   -4.1590 hc        1 MOL      0.103983
      6 H3          2.7440    4.2970   -2.9660 hc        1 MOL      0.103983
      7 N1          5.9140    3.4570   -2.5300 n         1 MOL     -0.784407
      8 C3          6.7870    2.4190   -2.0340 c3        1 MOL      0.276424
      9 C4          6.0570    1.0550   -1.7840 c         1 MOL      0.337149
     10 O2          5.7000    0.6750   -0.7230 o         1 MOL     -0.565979
     11 C5          7.6590    2.8370   -0.8640 c3        1 MOL     -0.035853
     12 C6          7.0100    3.7890    0.1050 c         1 MOL      0.761406
     13 O3          6.2890    3.3200    1.0230 o         1 MOL     -0.759163
     14 O4          7.3480    5.0140    0.0180 o         1 MOL     -0.759163
     15 H4          6.1900    3.9540   -3.3690 hn        1 MOL      0.330447
     16 H5          7.5510    2.3230   -2.8030 h1        1 MOL      0.039984
     17 H6          8.6200    3.1860   -1.2470 hc        1 MOL     -0.002647
     18 H7          7.9760    1.9600   -0.2980 hc        1 MOL     -0.002647
     19 N2          5.8120    0.4590   -2.9380 n         1 MOL     -0.513015
     20 C7          5.1170   -0.8070   -3.1030 c3        1 MOL      0.288231
     21 C8          5.8610   -2.0360   -2.4430 c         1 MOL      0.180896
     22 O5          6.0040   -3.1490   -3.0420 o         1 MOL     -0.524737
     23 C9          3.6200   -0.8380   -2.6350 c3        1 MOL      0.086166
     24 C10         2.8160   -2.1490   -2.9420 c3        1 MOL     -0.069831
     25 C11         2.9270    0.4700   -2.9710 c3        1 MOL     -0.370967
     26 C12         2.9420   -2.5370   -4.4460 c3        1 MOL     -0.121711
     27 H8          5.9840    1.0160   -3.7650 hn        1 MOL      0.294550
     28 H9          5.1260   -0.8590   -4.1840 h1        1 MOL      0.035069
     29 H10         3.6730   -0.7490   -1.5510 hc        1 MOL      0.009979
     30 H11         1.7490   -2.0770   -2.7010 hc        1 MOL      0.078734
     31 H12         3.1530   -3.0000   -2.3460 hc        1 MOL      0.078734
     32 H13         3.1990    1.1900   -2.1970 hc        1 MOL      0.080675
     33 H14         3.2270    0.9770   -3.8930 hc        1 MOL      0.080675
     34 H15         1.8510    0.3860   -2.8070 hc        1 MOL      0.080675
     35 H16         3.9910   -2.6790   -4.7060 hc        1 MOL      0.013256
     36 H17         2.4680   -3.5150   -4.5610 hc        1 MOL      0.013256
     37 H18         2.4830   -1.8110   -5.1280 hc        1 MOL      0.013256
     38 N3          6.4730   -1.9150   -1.2730 n         1 MOL      0.026243
     39 C13         7.4640   -2.7650   -0.6360 c3        1 MOL      0.118048
     40 C14         6.9810   -4.1740   -0.2550 c         1 MOL      0.449131
     41 O6          7.7680   -5.1400   -0.3630 o         1 MOL     -0.584435
     42 C15         7.9890   -2.0350    0.6180 c3        1 MOL     -0.458563
     43 C16         8.6680   -0.6920    0.3330 c         1 MOL      0.868058
     44 O7          9.1290   -0.3670   -0.7530 o         1 MOL     -0.729626
     45 O8          8.8270   -0.0060    1.3650 o         1 MOL     -0.729626
     46 H19         6.3040   -1.0440   -0.7770 hn        1 MOL      0.137279
     47 H20         8.3100   -2.8730   -1.3240 h1        1 MOL      0.041618
     48 H21         8.7560   -2.7010    1.0270 hc        1 MOL      0.113062
     49 H22         7.1840   -1.9760    1.3610 hc        1 MOL      0.113062
     50 N4          5.7540   -4.4450    0.2570 n         1 MOL     -0.350306
     51 C17         4.5820   -3.6490    0.6080 c3        1 MOL      0.026367
     52 C18         3.5120   -4.5320    1.2710 c         1 MOL      0.593402
     53 O9          3.4440   -5.7640    1.0440 o         1 MOL     -0.588928
     54 H23         5.5650   -5.4210    0.4220 hn        1 MOL      0.242587
     55 H24         4.2380   -3.0490   -0.2290 h1        1 MOL      0.035578
     56 H25         4.9750   -2.9460    1.3360 h1        1 MOL      0.035578
     57 N5          2.5770   -3.9790    1.9930 n         1 MOL     -0.418963
     58 C19         2.5010   -2.6380    2.5470 c3        1 MOL      0.078932
     59 C20         2.3750   -1.4320    1.6250 c         1 MOL      0.392590
     60 O10         3.3440   -0.7600    1.2270 o         1 MOL     -0.605723
     61 C21         3.5420   -2.4400    3.7140 c3        1 MOL     -0.196010
     62 C22         3.5570   -3.6760    4.6760 c         1 MOL      0.663516
     63 O11         4.6680   -3.9990    5.1550 o         1 MOL     -0.692959
     64 O12         2.4190   -4.1710    4.9930 o         1 MOL     -0.692959
     65 H26         1.9060   -4.6080    2.4160 hn        1 MOL      0.283042
     66 H27         1.5800   -2.7250    3.1300 h1        1 MOL      0.020401
     67 H28         3.1770   -1.5640    4.2650 hc        1 MOL      0.034176
     68 H29         4.5230   -2.2380    3.2910 hc        1 MOL      0.034176
     69 N6          1.1560   -1.0540    1.2500 n         1 MOL     -0.002579
     70 C23        -0.2070   -1.5370    1.4430 c3        1 MOL     -0.348954
     71 C24        -0.5900   -2.7720    0.6440 c         1 MOL      0.743502
     72 O13         0.2180   -3.2800   -0.1450 o         1 MOL     -0.580646
     73 H30         1.1650   -0.1810    0.7330 hn        1 MOL      0.083423
     74 H31        -0.9700   -0.7550    1.3360 h1        1 MOL      0.113689
     75 H32        -0.1890   -1.8810    2.4800 h1        1 MOL      0.113689
     76 N7         -1.8560   -3.1440    0.7750 n         1 MOL     -0.521085
     77 C25        -2.3980   -4.2970    0.0920 c3        1 MOL      0.029789
     78 C26        -3.0000   -4.1070   -1.3430 c         1 MOL      0.451735
     79 O14        -2.9800   -5.0070   -2.1780 o         1 MOL     -0.552496
     80 C27        -3.2510   -5.1370    1.0940 c3        1 MOL     -0.132006
     81 C28        -4.4840   -4.5060    1.7560 c3        1 MOL     -0.077647
     82 C29        -5.6680   -4.3900    0.8520 c         1 MOL      0.351873
     83 N8         -6.3980   -5.4980    0.5670 n         1 MOL     -0.572687
     84 O15        -5.9270   -3.2990    0.2970 o         1 MOL     -0.422206
     85 H33        -2.5040   -2.4590    1.1410 hn        1 MOL      0.268038
     86 H34        -1.5130   -4.9020   -0.0590 h1        1 MOL      0.124311
     87 H35        -2.6460   -5.5510    1.9070 hc        1 MOL      0.066552
     88 H36        -3.6420   -5.9610    0.4960 hc        1 MOL      0.066552
     89 H37        -4.2470   -3.5170    2.1580 hc        1 MOL      0.067918
     90 H38        -4.7040   -5.1140    2.6370 hc        1 MOL      0.067918
     91 H39        -6.2530   -6.3800    1.0420 hn        1 MOL      0.312361
     92 H40        -7.2330   -5.3660    0.0210 hn        1 MOL      0.312361
     93 N9         -3.4460   -2.9320   -1.6470 n         1 MOL     -0.098039
     94 C30        -3.8480   -2.4990   -3.0240 c3        1 MOL     -0.272723
     95 C31        -5.2460   -1.8530   -3.0880 c         1 MOL      0.506946
     96 O16        -5.6110   -1.4870   -4.1900 o         1 MOL     -0.556608
     97 C32        -2.7300   -1.6700   -3.6730 c3        1 MOL      0.174596
     98 C33        -1.3650   -2.3440   -3.8750 c3        1 MOL     -0.227021
     99 C34        -2.5570   -0.3860   -2.7660 c3        1 MOL     -0.227021
    100 H41        -3.6120   -2.2480   -0.9290 hn        1 MOL      0.183274
    101 H42        -3.9660   -3.3950   -3.6450 h1        1 MOL      0.152636
    102 H43        -3.0450   -1.3870   -4.6730 hc        1 MOL      0.034540
    103 H44        -1.3430   -2.9460   -4.7910 hc        1 MOL      0.061720
    104 H45        -0.6880   -1.5720   -4.2190 hc        1 MOL      0.061720
    105 H46        -1.0330   -2.8040   -2.9460 hc        1 MOL      0.061720
    106 H47        -1.7460    0.2260   -3.1790 hc        1 MOL      0.061720
    107 H48        -3.4280    0.2480   -2.9470 hc        1 MOL      0.061720
    108 H49        -2.2510   -0.6150   -1.7470 hc        1 MOL      0.061720
    109 N10        -5.9820   -1.5770   -1.9950 n         1 MOL     -0.272562
    110 C35        -7.2460   -0.8020   -2.1520 c3        1 MOL      0.074136
    111 C36        -7.2840    0.5480   -1.4750 c         1 MOL      0.582637
    112 O17        -8.2600    1.2910   -1.7700 o         1 MOL     -0.575785
    113 C37        -8.3230   -1.7290   -1.5180 c3        1 MOL     -0.183153
    114 C38        -8.4150   -3.1460   -2.1360 c         1 MOL      0.644013
    115 N11        -8.2990   -3.2610   -3.4350 n         1 MOL     -0.796647
    116 O18        -8.5020   -4.1780   -1.5480 o         1 MOL     -0.552140
    117 H50        -5.8020   -2.0120   -1.0950 hn        1 MOL      0.210449
    118 H51        -7.5970   -0.7310   -3.1850 h1        1 MOL      0.050985
    119 H52        -9.2690   -1.2250   -1.7250 hc        1 MOL      0.040628
    120 H53        -8.2630   -1.8890   -0.4380 hc        1 MOL      0.040628
    121 H54        -8.0990   -2.4420   -3.9990 hn        1 MOL      0.371413
    122 H55        -8.3850   -4.1770   -3.8610 hn        1 MOL      0.371413
    123 N12        -6.3440    0.9800   -0.6750 n         1 MOL     -0.517160
    124 C39        -6.4960    2.2020    0.1740 c3        1 MOL      0.300949
    125 C40        -5.1230    2.7960    0.5860 c         1 MOL      0.309227
    126 O19        -4.0420    2.1260    0.6350 o         1 MOL     -0.442928
    127 C41        -7.2580    1.9190    1.4810 c3        1 MOL     -0.225029
    128 C42        -6.7180    0.7580    2.3300 ca        1 MOL      0.088154
    129 C43        -5.6940    1.0080    3.2690 ca        1 MOL     -0.181510
    130 C44        -7.2750   -0.5090    2.1810 ca        1 MOL     -0.181510
    131 C45        -5.2830   -0.1090    4.0270 ca        1 MOL     -0.262824
    132 C46        -6.7770   -1.6190    2.9040 ca        1 MOL     -0.262824
    133 C47        -5.7750   -1.4660    3.8510 ca        1 MOL      0.336223
    134 O20        -5.3980   -2.4590    4.6930 oh        1 MOL     -0.511487
    135 H56        -5.5580    0.3920   -0.4330 hn        1 MOL      0.246121
    136 H57        -7.0420    2.9640   -0.3890 h1        1 MOL      0.030153
    137 H58        -8.2780    1.6490    1.2170 hc        1 MOL      0.068344
    138 H59        -7.3730    2.8150    2.0930 hc        1 MOL      0.068344
    139 H60        -5.2560    1.9970    3.4220 ha        1 MOL      0.173168
    140 H61        -8.0560   -0.7090    1.4660 ha        1 MOL      0.173168
    141 H62        -4.6150    0.0960    4.8540 ha        1 MOL      0.145626
    142 H63        -7.2520   -2.5760    2.7830 ha        1 MOL      0.145626
    143 H64        -4.7280   -2.0160    5.2180 ho        1 MOL      0.390905
    144 N13        -5.0840    4.1110    0.8610 n         1 MOL     -0.391499
    145 C48        -4.0870    5.0860    1.3290 c3        1 MOL      0.204689
    146 C49        -3.0100    5.3440    0.2420 c         1 MOL      0.136911
    147 O21        -2.5760    6.5030    0.1390 o         1 MOL     -0.496478
    148 C50        -3.5190    4.6860    2.6850 c3        1 MOL     -0.133661
    149 C51        -2.6860    5.7050    3.4240 c3        1 MOL     -0.088043
    150 C52        -2.1590    5.2250    4.7390 c         1 MOL      0.647215
    151 O22        -2.9640    5.2750    5.7380 o         1 MOL     -0.718354
    152 O23        -0.9060    4.9430    4.7680 o         1 MOL     -0.718354
    153 H65        -6.0290    4.4510    0.8020 hn        1 MOL      0.230922
    154 H66        -4.5580    6.0560    1.4910 h1        1 MOL      0.048515
    155 H67        -2.8520    3.8240    2.6180 hc        1 MOL      0.052868
    156 H68        -4.3860    4.4140    3.2880 hc        1 MOL      0.052868
    157 H69        -3.3000    6.5810    3.6320 hc        1 MOL      0.019261
    158 H70        -1.9250    6.1900    2.8130 hc        1 MOL      0.019261
    159 N14        -2.5630    4.2920   -0.3780 n         1 MOL     -0.001830
    160 C53        -1.5290    4.3560   -1.3800 c3        1 MOL     -0.038728
    161 C54        -1.9670    5.1470   -2.6520 c         1 MOL      0.470300
    162 O24        -1.1190    5.3960   -3.5030 o         1 MOL     -0.520350
    163 C55        -1.0480    2.9520   -1.8410 c3        1 MOL     -0.154379
    164 C56        -0.5200    2.0170   -0.7560 c3        1 MOL      0.364008
    165 C57         0.7220    2.4420   -0.0110 c         1 MOL      0.595960
    166 O25         0.8180    3.5640    0.5640 o         1 MOL     -0.630812
    167 O26         1.5960    1.5710    0.2200 o         1 MOL     -0.630812
    168 H71        -2.9710    3.3920   -0.1390 hn        1 MOL      0.132582
    169 H72        -0.6020    4.7940   -1.0030 h1        1 MOL      0.119275
    170 H73        -0.2230    2.9980   -2.5710 hc        1 MOL     -0.004468
    171 H74        -1.9440    2.4650   -2.2020 hc        1 MOL     -0.004468
    172 H75        -0.3480    1.0580   -1.2550 hc        1 MOL     -0.079395
    173 H76        -1.3140    1.8030   -0.0450 hc        1 MOL     -0.079395
    174 N15        -3.2780    5.4850   -2.7800 n         1 MOL     -0.211911
    175 C58        -3.7980    6.2980   -3.9160 c3        1 MOL     -0.158189
    176 H77        -3.8630    7.3430   -3.6150 h1        1 MOL      0.075154
    177 H78        -3.1230    6.2070   -4.7680 h1        1 MOL      0.075154
    178 H79        -4.7890    5.9400   -4.1970 h1        1 MOL      0.075154
    179 H80        -3.9570    4.9860   -2.2150 hn        1 MOL      0.183578
    180 Ca1         4.0560    1.8870    1.1530 Ca        1 MOL      1.800067
    181 O27         6.1450    0.5730    2.1040 oh        1 MOL     -0.885911
    182 H81         6.3700   -0.0180    2.8180 ho        1 MOL      0.433184
    183 H82         6.8910    0.5380    1.4990 ho        1 MOL      0.433184
    184 O28         3.1580    4.2720    2.0570 oh        1 MOL     -0.885911
    185 H83         2.4960    4.3310    1.3760 ho        1 MOL      0.433184
    186 H84         3.3100    5.1760    2.3370 ho        1 MOL      0.433184
    187 O29         3.4080    0.9550    3.6790 oh        1 MOL     -0.885911
    188 H85         4.0080    0.3680    4.1320 ho        1 MOL      0.433184
    189 H86         2.8280    1.2800    4.3740 ho        1 MOL      0.433184
@<TRIPOS>BOND
     1    1    2 1   
     2    1    4 1   
     3    1    5 1   
     4    1    6 1   
     5    2    3 2   
     6    2    7 1   
     7    7    8 1   
     8    7   15 1   
     9    8    9 1   
    10    8   11 1   
    11    8   16 1   
    12    9   10 2   
    13    9   19 1   
    14   11   12 1   
    15   11   17 1   
    16   11   18 1   
    17   12   13 1   
    18   12   14 1   
    19   19   20 1   
    20   19   27 1   
    21   20   21 1   
    22   20   23 1   
    23   20   28 1   
    24   21   22 2   
    25   21   38 1   
    26   23   24 1   
    27   23   25 1   
    28   23   29 1   
    29   24   26 1   
    30   24   30 1   
    31   24   31 1   
    32   25   32 1   
    33   25   33 1   
    34   25   34 1   
    35   26   35 1   
    36   26   36 1   
    37   26   37 1   
    38   38   39 1   
    39   38   46 1   
    40   39   40 1   
    41   39   42 1   
    42   39   47 1   
    43   40   41 2   
    44   40   50 1   
    45   42   43 1   
    46   42   48 1   
    47   42   49 1   
    48   43   44 1   
    49   43   45 1   
    50   50   51 1   
    51   50   54 1   
    52   51   52 1   
    53   51   55 1   
    54   51   56 1   
    55   52   53 2   
    56   52   57 1   
    57   57   58 1   
    58   57   65 1   
    59   58   59 1   
    60   58   61 1   
    61   58   66 1   
    62   59   60 2   
    63   59   69 1   
    64   61   62 1   
    65   61   67 1   
    66   61   68 1   
    67   62   63 1   
    68   62   64 1   
    69   69   70 1   
    70   69   73 1   
    71   70   71 1   
    72   70   74 1   
    73   70   75 1   
    74   71   72 2   
    75   71   76 1   
    76   76   77 1   
    77   76   85 1   
    78   77   78 1   
    79   77   80 1   
    80   77   86 1   
    81   78   79 2   
    82   78   93 1   
    83   80   81 1   
    84   80   87 1   
    85   80   88 1   
    86   81   82 1   
    87   81   89 1   
    88   81   90 1   
    89   82   83 1   
    90   82   84 2   
    91   83   91 1   
    92   83   92 1   
    93   93   94 1   
    94   93  100 1   
    95   94   95 1   
    96   94   97 1   
    97   94  101 1   
    98   95   96 2   
    99   95  109 1   
   100   97   98 1   
   101   97   99 1   
   102   97  102 1   
   103   98  103 1   
   104   98  104 1   
   105   98  105 1   
   106   99  106 1   
   107   99  107 1   
   108   99  108 1   
   109  109  110 1   
   110  109  117 1   
   111  110  111 1   
   112  110  113 1   
   113  110  118 1   
   114  111  112 2   
   115  111  123 1   
   116  113  114 1   
   117  113  119 1   
   118  113  120 1   
   119  114  115 1   
   120  114  116 2   
   121  115  121 1   
   122  115  122 1   
   123  123  124 1   
   124  123  135 1   
   125  124  125 1   
   126  124  127 1   
   127  124  136 1   
   128  125  126 2   
   129  125  144 1   
   130  127  128 1   
   131  127  137 1   
   132  127  138 1   
   133  128  129 ar  
   134  128  130 ar  
   135  129  131 ar  
   136  129  139 1   
   137  130  132 ar  
   138  130  140 1   
   139  131  133 ar  
   140  131  141 1   
   141  132  133 ar  
   142  132  142 1   
   143  133  134 1   
   144  134  143 1   
   145  144  145 1   
   146  144  153 1   
   147  145  146 1   
   148  145  148 1   
   149  145  154 1   
   150  146  147 2   
   151  146  159 1   
   152  148  149 1   
   153  148  155 1   
   154  148  156 1   
   155  149  150 1   
   156  149  157 1   
   157  149  158 1   
   158  150  151 1   
   159  150  152 1   
   160  159  160 1   
   161  159  168 1   
   162  160  161 1   
   163  160  163 1   
   164  160  169 1   
   165  161  162 2   
   166  161  174 1   
   167  163  164 1   
   168  163  170 1   
   169  163  171 1   
   170  164  165 1   
   171  164  172 1   
   172  164  173 1   
   173  165  166 1   
   174  165  167 1   
   175  174  175 1   
   176  174  179 1   
   177  175  176 1   
   178  175  177 1   
   179  175  178 1   
   180  181  182 1   
   181  181  183 1   
   182  184  185 1   
   183  184  186 1   
   184  187  188 1   
   185  187  189 1   
@<TRIPOS>SUBSTRUCTURE
     1 MOL         1 TEMP              0 ****  ****    0 ROOT
