@<TRIPOS>MOLECULE
MOL
  181   177     1     0     0
SMALL
resp


@<TRIPOS>ATOM
      1 C1          5.1680    4.8060   -5.2200 c3        1 MOL     -0.364125
      2 C2          4.8220    3.5070   -4.5050 c         1 MOL      0.620097
      3 O1          3.9120    2.7520   -4.9430 o         1 MOL     -0.604077
      4 H1          6.2010    4.7660   -5.5640 hc        1 MOL      0.103613
      5 H2          4.5060    4.9390   -6.0750 hc        1 MOL      0.103613
      6 H3          5.0470    5.6430   -4.5330 hc        1 MOL      0.103613
      7 N1          5.4720    3.0520   -3.4470 n         1 MOL     -0.404225
      8 C3          6.5220    3.6660   -2.6220 c3        1 MOL      0.125077
      9 C4          6.0700    3.8160   -1.1680 c         1 MOL      0.417329
     10 O2          5.3350    3.0300   -0.6460 o         1 MOL     -0.456098
     11 C5          7.7190    2.7750   -2.7070 c3        1 MOL     -0.183305
     12 C6          7.4250    1.2150   -2.7410 c         1 MOL      0.629657
     13 O3          6.6240    0.6780   -1.9750 o         1 MOL     -0.664953
     14 O4          7.9590    0.5370   -3.6300 o         1 MOL     -0.664953
     15 H4          4.9900    2.2120   -3.1540 hn        1 MOL      0.315401
     16 H5          6.7770    4.6600   -2.9740 h1        1 MOL      0.027716
     17 H6          8.4250    2.9790   -1.9010 hc        1 MOL      0.043580
     18 H7          8.2720    3.0770   -3.5960 hc        1 MOL      0.043580
     19 N2          6.6140    4.8170   -0.4640 n         1 MOL     -0.472370
     20 C7          6.2410    5.2440    0.8880 c3        1 MOL      0.157948
     21 C8          6.5710    4.3220    2.0910 c         1 MOL      0.392561
     22 O5          7.1250    4.8450    3.0510 o         1 MOL     -0.552969
     23 C9          4.7180    5.6140    0.8890 c3        1 MOL     -0.343754
     24 H8          7.5110    5.1970   -0.7280 hn        1 MOL      0.283768
     25 H9          6.7560    6.1950    0.9380 h1        1 MOL      0.055814
     26 H10         4.4910    6.0360    1.8630 hc        1 MOL      0.115021
     27 H11         4.5460    6.3340    0.0850 hc        1 MOL      0.115021
     28 H12         4.0140    4.7920    0.8020 hc        1 MOL      0.115021
     29 N3          6.2720    2.9850    2.0700 n         1 MOL     -0.045965
     30 C10         6.6320    1.9320    2.9900 c3        1 MOL     -0.061440
     31 C11         7.1100    0.6100    2.3270 c         1 MOL      0.419969
     32 O6          6.7950    0.3200    1.2110 o         1 MOL     -0.573763
     33 C12         5.4400    1.6310    3.9110 c3        1 MOL      0.181332
     34 C13         4.1330    1.2610    3.2170 c         1 MOL      0.569801
     35 O7          4.1710    1.0570    1.9920 o         1 MOL     -0.625222
     36 O8          3.1120    1.2210    3.9500 o         1 MOL     -0.625222
     37 H13         5.6760    2.7550    1.2890 hn        1 MOL      0.007240
     38 H14         7.4980    2.2520    3.5560 h1        1 MOL      0.027461
     39 H15         5.2910    2.5000    4.5570 hc        1 MOL     -0.068271
     40 H16         5.6590    0.7390    4.4910 hc        1 MOL     -0.068271
     41 N4          7.9130   -0.0640    3.1030 n         1 MOL     -0.191761
     42 C14         8.5100   -1.3690    2.6510 c3        1 MOL     -0.394779
     43 C15         7.5200   -2.4950    2.5390 c         1 MOL      0.549552
     44 O9          7.9260   -3.5690    1.9810 o         1 MOL     -0.588818
     45 H17         8.3780    0.3890    3.8800 hn        1 MOL      0.264538
     46 H18         9.3240   -1.6650    3.3110 h1        1 MOL      0.181413
     47 H19         9.0360   -1.1960    1.7100 h1        1 MOL      0.181413
     48 N5          6.3480   -2.2820    3.0070 n         1 MOL     -0.200915
     49 C16         5.1880   -3.0760    2.9520 c3        1 MOL     -0.143805
     50 C17         4.4340   -2.9790    1.6600 c         1 MOL      0.501889
     51 O10         4.2300   -1.8390    1.1200 o         1 MOL     -0.478901
     52 C18         4.2290   -2.7150    4.1150 c3        1 MOL     -0.261773
     53 C19         4.7940   -2.6110    5.4920 c         1 MOL      0.668941
     54 N6          5.0020   -3.7340    6.1230 n         1 MOL     -0.781885
     55 O11         5.1060   -1.6170    6.0670 o         1 MOL     -0.499110
     56 H20         6.2050   -1.3170    3.2810 hn        1 MOL      0.147749
     57 H21         5.5060   -4.1010    3.1120 h1        1 MOL      0.093802
     58 H22         3.3930   -3.4170    4.0570 hc        1 MOL      0.130882
     59 H23         3.7520   -1.7460    3.9500 hc        1 MOL      0.130882
     60 H24         4.8370   -4.5900    5.6220 hn        1 MOL      0.351034
     61 H25         5.3720   -3.7690    7.0650 hn        1 MOL      0.351034
     62 N7          3.8970   -4.0980    1.2120 n         1 MOL     -0.332388
     63 C20         2.9170   -4.1620    0.1300 c3        1 MOL     -0.141156
     64 C21         1.9420   -5.3740    0.0730 c         1 MOL      0.701686
     65 O12         2.2900   -6.4150    0.6530 o         1 MOL     -0.584750
     66 H26         4.2100   -4.9650    1.6370 hn        1 MOL      0.260017
     67 H27         3.3910   -4.2590   -0.8540 h1        1 MOL      0.157205
     68 H28         2.3400   -3.2460    0.2310 h1        1 MOL      0.157205
     69 N8          0.8280   -5.3330   -0.6660 n         1 MOL     -0.695096
     70 C22         0.6310   -4.3520   -1.7360 c3        1 MOL     -0.019670
     71 C23        -0.7420   -3.6580   -1.7730 c         1 MOL      0.658524
     72 O13        -1.6320   -4.0410   -1.0370 o         1 MOL     -0.484214
     73 C24         0.9380   -4.9920   -3.0980 c3        1 MOL      0.474068
     74 C25         2.3060   -5.6060   -3.2130 c3        1 MOL     -0.269553
     75 O14         0.0850   -6.0570   -3.5290 oh        1 MOL     -0.611008
     76 H29         0.2210   -6.1450   -0.6390 hn        1 MOL      0.391942
     77 H30         1.4420   -3.6230   -1.7910 h1        1 MOL     -0.011507
     78 H31         1.0110   -4.1890   -3.8450 h1        1 MOL      0.016507
     79 H32         0.4160   -6.8030   -3.0330 ho        1 MOL      0.383595
     80 H33         3.0650   -4.8560   -3.0140 hc        1 MOL      0.042250
     81 H34         2.4630   -6.3370   -2.4260 hc        1 MOL      0.042250
     82 H35         2.4440   -6.0430   -4.1980 hc        1 MOL      0.042250
     83 N9         -0.8730   -2.6980   -2.6570 n         1 MOL     -0.587737
     84 C26        -2.0750   -1.8210   -2.7890 c3        1 MOL     -0.078928
     85 C27        -3.2880   -2.6690   -3.3160 c         1 MOL      0.736151
     86 O15        -3.1650   -3.3690   -4.3160 o         1 MOL     -0.595066
     87 C28        -1.7830   -0.8000   -3.8400 c3        1 MOL      0.019407
     88 C29        -0.5540    0.1400   -3.4780 c3        1 MOL      0.088412
     89 C30        -3.0140    0.1620   -3.9580 c3        1 MOL     -0.104266
     90 C31        -0.2290    1.1210   -4.6200 c3        1 MOL     -0.234593
     91 H36        -0.0520   -2.4640   -3.2050 hn        1 MOL      0.287363
     92 H37        -2.1860   -1.3020   -1.8350 h1        1 MOL      0.115822
     93 H38        -1.6500   -1.3730   -4.7540 hc        1 MOL      0.009287
     94 H39         0.3270   -0.4920   -3.3450 hc        1 MOL     -0.003164
     95 H40        -0.7800    0.7250   -2.5950 hc        1 MOL     -0.003164
     96 H41        -3.1820    0.7110   -3.0250 hc        1 MOL      0.028178
     97 H42        -2.9310    0.8740   -4.7800 hc        1 MOL      0.028178
     98 H43        -3.9000   -0.4150   -4.2000 hc        1 MOL      0.028178
     99 H44         0.7460    1.5810   -4.5340 hc        1 MOL      0.045948
    100 H45        -0.3560    0.6500   -5.5900 hc        1 MOL      0.045948
    101 H46        -1.0020    1.8960   -4.6660 hc        1 MOL      0.045948
    102 N10        -4.4630   -2.6800   -2.6310 n         1 MOL     -0.498696
    103 C32        -4.6410   -2.4240   -1.1960 c3        1 MOL      0.157671
    104 C33        -5.8940   -1.4250   -1.0170 c         1 MOL      0.460853
    105 O16        -6.5070   -0.8850   -1.9320 o         1 MOL     -0.531634
    106 C34        -5.0540   -3.7120   -0.5470 c3        1 MOL     -0.189413
    107 C35        -6.0730   -4.5690   -1.3840 c         1 MOL      0.632820
    108 O17        -7.1350   -4.0310   -1.8320 o         1 MOL     -0.689582
    109 O18        -5.8410   -5.7730   -1.6070 o         1 MOL     -0.689582
    110 H47        -5.2240   -3.1090   -3.1290 hn        1 MOL      0.320237
    111 H48        -3.8340   -1.9640   -0.6320 h1        1 MOL      0.070964
    112 H49        -5.4570   -3.5500    0.4540 hc        1 MOL      0.024243
    113 H50        -4.1550   -4.3210   -0.4000 hc        1 MOL      0.024243
    114 N11        -6.1960   -1.1220    0.2200 n         1 MOL     -0.664200
    115 C36        -7.3230   -0.3620    0.6940 c3        1 MOL      0.589272
    116 C37        -7.1010    0.5470    1.9090 c         1 MOL      0.171939
    117 O19        -6.3430    0.2570    2.8120 o         1 MOL     -0.482670
    118 C38        -8.4550   -1.3740    1.0340 c3        1 MOL     -0.387298
    119 C39        -9.7270   -0.9850    1.8070 ca        1 MOL      0.143225
    120 C40       -10.1290   -1.6700    2.9780 ca        1 MOL     -0.139746
    121 C41       -10.5780    0.0000    1.4060 ca        1 MOL     -0.139746
    122 C42       -11.2320   -1.3580    3.6680 ca        1 MOL     -0.131569
    123 C43       -11.6610    0.3900    2.1990 ca        1 MOL     -0.131569
    124 C44       -12.0470   -0.3340    3.3250 ca        1 MOL     -0.123383
    125 H51        -5.7570   -1.6890    0.9270 hn        1 MOL      0.311845
    126 H52        -7.6810    0.3390   -0.0600 h1        1 MOL     -0.025415
    127 H53        -7.9180   -2.1690    1.5440 hc        1 MOL      0.137532
    128 H54        -8.8920   -1.7810    0.1220 hc        1 MOL      0.137532
    129 H55        -9.5250   -2.4550    3.4160 ha        1 MOL      0.106213
    130 H56       -10.4310    0.3450    0.3970 ha        1 MOL      0.106213
    131 H57       -11.4610   -1.8710    4.5990 ha        1 MOL      0.093883
    132 H58       -12.2240    1.2560    1.8670 ha        1 MOL      0.093883
    133 H59       -12.9400   -0.0200    3.8400 ha        1 MOL      0.095049
    134 N12        -7.8070    1.6490    2.0080 n         1 MOL      0.173514
    135 C45        -8.4100    2.4580    0.9370 c3        1 MOL     -0.078150
    136 C46        -7.4150    3.0720   -0.0430 c         1 MOL      0.526599
    137 O20        -7.6220    3.2610   -1.1900 o         1 MOL     -0.558949
    138 C47        -9.3200    3.5040    1.6070 c3        1 MOL     -0.056926
    139 C48        -8.7410    3.7480    2.9850 c3        1 MOL     -0.028846
    140 C49        -7.9090    2.4560    3.2430 c3        1 MOL     -0.207990
    141 H60        -9.0370    1.8500    0.2830 h1        1 MOL      0.028976
    142 H61        -9.2040    4.4830    1.1490 hc        1 MOL      0.031450
    143 H62       -10.3540    3.1460    1.6020 hc        1 MOL      0.031450
    144 H63        -8.1350    4.6530    3.0240 hc        1 MOL      0.034754
    145 H64        -9.5670    3.9240    3.6770 hc        1 MOL      0.034754
    146 H65        -6.9500    2.5040    3.7720 h1        1 MOL      0.082705
    147 H66        -8.4090    1.7580    3.9180 h1        1 MOL      0.082705
    148 N13        -6.3050    3.5170    0.4670 n         1 MOL     -0.430414
    149 C50        -5.0840    3.9810   -0.1740 c3        1 MOL      0.331310
    150 C51        -4.8930    5.4970   -0.2160 c         1 MOL      0.296790
    151 O21        -4.1370    6.0430    0.6380 o         1 MOL     -0.542135
    152 C52        -3.8650    3.2080    0.3650 c3        1 MOL     -0.045236
    153 C53        -3.8710    1.7360   -0.0120 c3        1 MOL     -0.086484
    154 C54        -2.7170    0.9340    0.6700 c         1 MOL      0.706449
    155 O22        -2.7870    0.4970    1.8360 o         1 MOL     -0.700188
    156 O23        -1.7440    0.7980   -0.0040 o         1 MOL     -0.700188
    157 H67        -6.2400    3.3230    1.4550 hn        1 MOL      0.245027
    158 H68        -5.1040    3.6350   -1.2070 h1        1 MOL      0.046106
    159 H69        -3.8050    3.3250    1.4400 hc        1 MOL      0.011394
    160 H70        -3.0100    3.6800   -0.1370 hc        1 MOL      0.011394
    161 H71        -3.8090    1.5690   -1.0870 hc        1 MOL     -0.004290
    162 H72        -4.8020    1.2730    0.3300 hc        1 MOL     -0.004290
    163 N14        -5.4280    6.2780   -1.1730 n         1 MOL     -0.302004
    164 C55        -6.0040    5.9740   -2.4700 c3        1 MOL     -0.089436
    165 H73        -6.9300    6.5340   -2.5970 h1        1 MOL      0.063609
    166 H74        -5.3010    6.2520   -3.2550 h1        1 MOL      0.063609
    167 H75        -6.2150    4.9060   -2.5320 h1        1 MOL      0.063609
    168 H76        -5.1690    7.2500   -1.0410 hn        1 MOL      0.252636
    169 Ca1         4.7070    0.1780   -0.4120 Ca        1 MOL      1.792970
    170 O24         6.1550   -2.1300   -0.8190 oh        1 MOL     -0.908648
    171 H77         6.4980   -2.8700   -0.3190 ho        1 MOL      0.431063
    172 H78         6.8510   -1.9110   -1.4380 ho        1 MOL      0.431063
    173 O25         1.9690   -0.0490   -0.0770 oh        1 MOL     -0.908648
    174 H79         1.7170    0.7480   -0.5390 ho        1 MOL      0.431063
    175 H80         1.1930   -0.6060   -0.1060 ho        1 MOL      0.431063
    176 O26         3.9070   -1.3190   -2.4640 oh        1 MOL     -0.908648
    177 H81         4.4060   -2.1160   -2.6030 ho        1 MOL      0.431063
    178 H82         3.8470   -0.9110   -3.3280 ho        1 MOL      0.431063
    179 O27         3.2110    1.6610   -2.3320 oh        1 MOL     -0.908648
    180 H83         3.1010    1.7810   -3.2720 ho        1 MOL      0.431063
    181 H84         2.4840    2.1510   -1.9400 ho        1 MOL      0.431063
@<TRIPOS>BOND
     1    1    2 1   
     2    1    4 1   
     3    1    5 1   
     4    1    6 1   
     5    2    3 2   
     6    2    7 1   
     7    7    8 1   
     8    7   15 1   
     9    8    9 1   
    10    8   11 1   
    11    8   16 1   
    12    9   10 2   
    13    9   19 1   
    14   11   12 1   
    15   11   17 1   
    16   11   18 1   
    17   12   13 1   
    18   12   14 1   
    19   19   20 1   
    20   19   24 1   
    21   20   21 1   
    22   20   23 1   
    23   20   25 1   
    24   21   22 2   
    25   21   29 1   
    26   23   26 1   
    27   23   27 1   
    28   23   28 1   
    29   29   30 1   
    30   29   37 1   
    31   30   31 1   
    32   30   33 1   
    33   30   38 1   
    34   31   32 2   
    35   31   41 1   
    36   33   34 1   
    37   33   39 1   
    38   33   40 1   
    39   34   35 1   
    40   34   36 1   
    41   41   42 1   
    42   41   45 1   
    43   42   43 1   
    44   42   46 1   
    45   42   47 1   
    46   43   44 2   
    47   43   48 1   
    48   48   49 1   
    49   48   56 1   
    50   49   50 1   
    51   49   52 1   
    52   49   57 1   
    53   50   51 2   
    54   50   62 1   
    55   52   53 1   
    56   52   58 1   
    57   52   59 1   
    58   53   54 1   
    59   53   55 2   
    60   54   60 1   
    61   54   61 1   
    62   62   63 1   
    63   62   66 1   
    64   63   64 1   
    65   63   67 1   
    66   63   68 1   
    67   64   65 2   
    68   64   69 1   
    69   69   70 1   
    70   69   76 1   
    71   70   71 1   
    72   70   73 1   
    73   70   77 1   
    74   71   72 2   
    75   71   83 1   
    76   73   74 1   
    77   73   75 1   
    78   73   78 1   
    79   74   80 1   
    80   74   81 1   
    81   74   82 1   
    82   75   79 1   
    83   83   84 1   
    84   83   91 1   
    85   84   85 1   
    86   84   87 1   
    87   84   92 1   
    88   85   86 2   
    89   85  102 1   
    90   87   88 1   
    91   87   89 1   
    92   87   93 1   
    93   88   90 1   
    94   88   94 1   
    95   88   95 1   
    96   89   96 1   
    97   89   97 1   
    98   89   98 1   
    99   90   99 1   
   100   90  100 1   
   101   90  101 1   
   102  102  103 1   
   103  102  110 1   
   104  103  104 1   
   105  103  106 1   
   106  103  111 1   
   107  104  105 2   
   108  104  114 1   
   109  106  107 1   
   110  106  112 1   
   111  106  113 1   
   112  107  108 1   
   113  107  109 1   
   114  114  115 1   
   115  114  125 1   
   116  115  116 1   
   117  115  118 1   
   118  115  126 1   
   119  116  117 2   
   120  116  134 1   
   121  118  119 1   
   122  118  127 1   
   123  118  128 1   
   124  119  120 ar  
   125  119  121 ar  
   126  120  122 ar  
   127  120  129 1   
   128  121  123 ar  
   129  121  130 1   
   130  122  124 ar  
   131  122  131 1   
   132  123  124 ar  
   133  123  132 1   
   134  124  133 1   
   135  134  135 1   
   136  134  140 1   
   137  135  136 1   
   138  135  138 1   
   139  135  141 1   
   140  136  137 2   
   141  136  148 1   
   142  138  139 1   
   143  138  142 1   
   144  138  143 1   
   145  139  140 1   
   146  139  144 1   
   147  139  145 1   
   148  140  146 1   
   149  140  147 1   
   150  148  149 1   
   151  148  157 1   
   152  149  150 1   
   153  149  152 1   
   154  149  158 1   
   155  150  151 2   
   156  150  163 1   
   157  152  153 1   
   158  152  159 1   
   159  152  160 1   
   160  153  154 1   
   161  153  161 1   
   162  153  162 1   
   163  154  155 1   
   164  154  156 1   
   165  163  164 1   
   166  163  168 1   
   167  164  165 1   
   168  164  166 1   
   169  164  167 1   
   170  170  171 1   
   171  170  172 1   
   172  173  174 1   
   173  173  175 1   
   174  176  177 1   
   175  176  178 1   
   176  179  180 1   
   177  179  181 1   
@<TRIPOS>SUBSTRUCTURE
     1 MOL         1 TEMP              0 ****  ****    0 ROOT
