@<TRIPOS>MOLECULE
MOL
  192   187     1     0     0
SMALL
resp


@<TRIPOS>ATOM
      1 C1          9.8440    1.3030    0.3990 c3        1 MOL     -0.463284
      2 C2          8.5040    0.5850   -0.0290 c         1 MOL      0.828668
      3 O1          7.4330    0.7500    0.5760 o         1 MOL     -0.673664
      4 H1         10.1100    1.0000    1.4120 hc        1 MOL      0.117583
      5 H2         10.6440    1.0210   -0.2860 hc        1 MOL      0.117583
      6 H3          9.7030    2.3840    0.3690 hc        1 MOL      0.117583
      7 N1          8.5800   -0.2510   -1.0220 n         1 MOL     -0.684496
      8 C3          7.4540   -0.8420   -1.7410 c3        1 MOL      0.220961
      9 C4          7.0110   -2.1910   -1.1360 c         1 MOL      0.494991
     10 O2          6.8250   -3.1400   -1.8930 o         1 MOL     -0.494214
     11 C5          7.7360   -0.9460   -3.2720 c3        1 MOL     -0.267526
     12 C6          8.3340    0.2810   -3.9310 c         1 MOL      0.727472
     13 O3          7.8420    1.4190   -3.6420 o         1 MOL     -0.660234
     14 O4          9.3570    0.2550   -4.6230 o         1 MOL     -0.660234
     15 H4          9.4900   -0.5080   -1.3890 hn        1 MOL      0.353218
     16 H5          6.6280   -0.1330   -1.7140 h1        1 MOL      0.061991
     17 H6          6.8840   -1.2480   -3.8790 hc        1 MOL      0.059276
     18 H7          8.4550   -1.7470   -3.4460 hc        1 MOL      0.059276
     19 N2          6.7420   -2.3440    0.1720 n         1 MOL     -0.500600
     20 C7          6.2940   -3.5430    0.8760 c3        1 MOL      0.439774
     21 C8          4.7860   -3.9550    0.7200 c         1 MOL      0.428246
     22 O5          4.5560   -5.1010    0.3660 o         1 MOL     -0.518995
     23 C9          6.6680   -3.3940    2.3580 c3        1 MOL     -0.377072
     24 C10         8.1030   -2.9640    2.7160 c3        1 MOL      0.128403
     25 C11         9.1000   -4.0550    2.3110 c3        1 MOL     -0.083680
     26 C12        10.6090   -3.6220    2.4440 c3        1 MOL      0.009090
     27 N3         10.9360   -3.1250    3.8400 n4        1 MOL     -0.161176
     28 H8          6.8850   -1.5010    0.7010 hn        1 MOL      0.202241
     29 H9          6.7580   -4.4620    0.5100 h1        1 MOL     -0.018847
     30 H10         6.3720   -4.3250    2.8380 hc        1 MOL      0.095065
     31 H11         6.1070   -2.5360    2.7240 hc        1 MOL      0.095065
     32 H12         8.2840   -2.8620    3.7760 hc        1 MOL     -0.031043
     33 H13         8.3980   -2.0000    2.2840 hc        1 MOL     -0.031043
     34 H14         8.9170   -4.2830    1.2630 hc        1 MOL      0.071641
     35 H15         8.8170   -4.9580    2.8480 hc        1 MOL      0.071641
     36 H16        10.7570   -2.7880    1.7620 hx        1 MOL      0.067310
     37 H17        11.2060   -4.4950    2.1850 hx        1 MOL      0.067310
     38 H18        11.8900   -2.8130    3.9420 hn        1 MOL      0.225405
     39 H19        10.3090   -2.3760    4.0850 hn        1 MOL      0.225405
     40 H20        10.7100   -3.8700    4.4850 hn        1 MOL      0.225405
     41 N4          3.7500   -3.0600    0.7740 n         1 MOL     -0.398916
     42 C13         3.7660   -1.6210    1.1960 c3        1 MOL     -0.021285
     43 C14         3.7260   -0.7340   -0.0600 c         1 MOL      0.383612
     44 O6          3.5340   -1.1990   -1.1960 o         1 MOL     -0.492359
     45 C15         2.6370   -1.2270    2.1970 c3        1 MOL     -0.182489
     46 C16         1.3120   -1.7740    1.7290 c         1 MOL      0.689284
     47 O7          0.8850   -1.3360    0.6280 o         1 MOL     -0.671649
     48 O8          0.7710   -2.6920    2.3400 o         1 MOL     -0.671649
     49 H21         2.8440   -3.3660    0.4400 hn        1 MOL      0.364222
     50 H22         4.7110   -1.3590    1.6700 h1        1 MOL      0.105497
     51 H23         2.6280   -0.1370    2.2690 hc        1 MOL      0.014049
     52 H24         2.9140   -1.6870    3.1510 hc        1 MOL      0.014049
     53 N5          4.1380    0.5240    0.1430 n         1 MOL     -0.035018
     54 C17         4.2120    1.5730   -0.8720 c3        1 MOL     -0.270514
     55 C18         2.7790    2.1720   -1.1950 c         1 MOL      0.584776
     56 O9          1.7740    1.5750   -0.7330 o         1 MOL     -0.799941
     57 H25         4.4090    0.7440    1.0850 hn        1 MOL      0.201800
     58 H26         4.6170    1.1350   -1.7820 h1        1 MOL      0.138434
     59 H27         4.9040    2.2990   -0.4310 h1        1 MOL      0.138434
     60 N6          2.7130    3.2170   -2.0040 n         1 MOL     -0.400379
     61 C19         1.5870    4.1150   -2.4760 c3        1 MOL      0.313957
     62 C20         2.1050    5.5690   -2.6340 c         1 MOL      0.481749
     63 O10         3.3080    5.7870   -2.6050 o         1 MOL     -0.536471
     64 C21         1.1600    3.5970   -3.8740 c3        1 MOL     -0.305368
     65 C22         0.6490    2.1700   -3.8620 c         1 MOL      0.750600
     66 O11        -0.1400    1.8390   -2.9510 o         1 MOL     -0.693704
     67 O12         0.8610    1.4410   -4.8050 o         1 MOL     -0.693704
     68 H28         3.6410    3.5250   -2.2750 hn        1 MOL      0.263696
     69 H29         0.7160    3.9980   -1.8260 h1        1 MOL     -0.024086
     70 H30         2.0210    3.6680   -4.5390 hc        1 MOL      0.071974
     71 H31         0.3790    4.2270   -4.2950 hc        1 MOL      0.071974
     72 N7          1.2760    6.5900   -2.6260 n         1 MOL     -0.505533
     73 C23        -0.2360    6.4770   -2.6050 c3        1 MOL      0.008405
     74 C24        -0.7960    6.1960   -1.1960 c         1 MOL      0.538016
     75 O13        -0.2110    6.6690   -0.2670 o         1 MOL     -0.471554
     76 H32         1.7670    7.4690   -2.5530 hn        1 MOL      0.337100
     77 H33        -0.5810    5.6920   -3.2690 h1        1 MOL      0.062605
     78 H34        -0.8370    7.2890   -3.0210 h1        1 MOL      0.062605
     79 N8         -1.9500    5.5770   -1.1550 n         1 MOL     -0.489792
     80 C25        -2.5410    5.2810    0.1270 c3        1 MOL     -0.009286
     81 C26        -1.7860    4.0080    0.6730 c         1 MOL      0.891705
     82 O14        -1.2910    3.1150   -0.0450 o         1 MOL     -0.714177
     83 C27        -4.0500    5.0730    0.1260 c3        1 MOL      0.431023
     84 C28        -4.7670    6.3220   -0.2610 c3        1 MOL     -0.411405
     85 O15        -4.5140    4.6870    1.3150 oh        1 MOL     -0.625505
     86 H35        -2.3200    5.0710   -1.9540 hn        1 MOL      0.280704
     87 H36        -2.2850    6.1310    0.7600 h1        1 MOL      0.043075
     88 H37        -4.3150    4.2200   -0.5040 h1        1 MOL      0.013820
     89 H38        -4.9650    5.4530    1.6730 ho        1 MOL      0.368689
     90 H39        -4.4150    7.1690    0.3150 hc        1 MOL      0.107905
     91 H40        -4.6000    6.5490   -1.3160 hc        1 MOL      0.107905
     92 H41        -5.8070    6.1130   -0.0330 hc        1 MOL      0.107905
     93 N9         -1.6690    4.0400    2.0150 n         1 MOL     -0.717204
     94 C29        -0.8560    3.0680    2.7880 c3        1 MOL     -0.089607
     95 C30        -1.4320    1.6880    2.6430 c         1 MOL      0.871986
     96 O16        -1.2300    0.9640    1.6610 o         1 MOL     -0.636376
     97 C31         0.6120    3.2490    2.4730 c3        1 MOL     -0.011975
     98 C32         1.1720    4.7190    2.6210 c3        1 MOL      0.289294
     99 C33         1.4300    2.3050    3.3750 c3        1 MOL     -0.538216
    100 C34         2.4480    4.9610    1.9550 c3        1 MOL     -0.205105
    101 H42        -2.0730    4.7770    2.5710 hn        1 MOL      0.330618
    102 H43        -0.9840    3.3040    3.8340 h1        1 MOL      0.081062
    103 H44         0.8240    2.8430    1.4890 hc        1 MOL      0.190589
    104 H45         1.2660    4.8670    3.6910 hc        1 MOL     -0.062637
    105 H46         0.5720    5.4860    2.1380 hc        1 MOL     -0.062637
    106 H47         1.3250    2.6320    4.4090 hc        1 MOL      0.136136
    107 H48         1.0070    1.2940    3.3950 hc        1 MOL      0.136136
    108 H49         2.5080    2.3730    3.2350 hc        1 MOL      0.136136
    109 H50         2.3260    4.9290    0.8690 hc        1 MOL      0.041463
    110 H51         2.6390    5.9870    2.2460 hc        1 MOL      0.041463
    111 H52         3.2160    4.2480    2.2330 hc        1 MOL      0.041463
    112 N10        -2.1810    1.2490    3.7010 n         1 MOL     -0.688617
    113 C35        -2.7630   -0.1220    3.8210 c3        1 MOL     -0.028850
    114 C36        -4.0990   -0.2810    3.1870 c         1 MOL      0.524745
    115 O17        -4.4340   -1.4540    2.9640 o         1 MOL     -0.561582
    116 C37        -2.7650   -0.6360    5.2830 c3        1 MOL      0.307757
    117 C38        -3.7100    0.0650    6.2350 c3        1 MOL     -0.214061
    118 O18        -1.4380   -0.4280    5.8930 oh        1 MOL     -0.580241
    119 H53        -2.4870    1.9170    4.3890 hn        1 MOL      0.350152
    120 H54        -2.0840   -0.7320    3.2390 h1        1 MOL      0.110070
    121 H55        -3.0360   -1.6960    5.2430 h1        1 MOL      0.040463
    122 H56        -0.8870   -0.8920    5.2580 ho        1 MOL      0.376204
    123 H57        -3.4940    1.1300    6.2740 hc        1 MOL      0.061113
    124 H58        -4.7660    0.0080    5.9530 hc        1 MOL      0.061113
    125 H59        -3.6410   -0.5450    7.1350 hc        1 MOL      0.061113
    126 N11        -4.8500    0.7800    2.8230 n         1 MOL     -0.207054
    127 C39        -6.2530    0.6360    2.3100 c3        1 MOL     -0.412129
    128 C40        -6.2340   -0.1490    0.9870 c         1 MOL      0.696549
    129 O19        -5.7650    0.3510   -0.0510 o         1 MOL     -0.561178
    130 C41        -7.1050    1.9040    2.1360 c3        1 MOL      0.495004
    131 C42        -8.5060    1.6740    1.5500 c3        1 MOL     -0.264505
    132 O20        -7.3450    2.4400    3.4070 oh        1 MOL     -0.622112
    133 H60        -4.5050    1.7120    2.9950 hn        1 MOL      0.195496
    134 H61        -6.8230   -0.0050    2.9810 h1        1 MOL      0.143899
    135 H62        -6.6220    2.6450    1.5010 h1        1 MOL     -0.018521
    136 H63        -6.4810    2.6610    3.7760 ho        1 MOL      0.377600
    137 H64        -8.3840    1.4770    0.4800 hc        1 MOL      0.073882
    138 H65        -8.8470    0.7380    2.0080 hc        1 MOL      0.073882
    139 H66        -9.1030    2.5740    1.6850 hc        1 MOL      0.073882
    140 N12        -6.7330   -1.4040    1.0010 n         1 MOL     -0.430064
    141 C43        -6.8980   -2.2820   -0.2030 c3        1 MOL     -0.007551
    142 C44        -5.5840   -2.5950   -0.8840 c         1 MOL      0.512280
    143 O21        -5.3750   -2.1810   -2.0350 o         1 MOL     -0.539156
    144 C45        -8.0190   -1.7280   -1.1410 c3        1 MOL     -0.203585
    145 C46        -8.6250   -2.8150   -2.0400 c3        1 MOL      0.043190
    146 C47        -9.5790   -2.1800   -3.0340 c3        1 MOL     -0.071571
    147 C48       -10.0940   -3.1910   -4.0570 c3        1 MOL      0.108040
    148 N13        -9.1700   -3.4450   -5.1900 n4        1 MOL     -0.347066
    149 H67        -7.0750   -1.7130    1.8990 hn        1 MOL      0.277515
    150 H68        -7.2990   -3.2420    0.1250 h1        1 MOL      0.084140
    151 H69        -7.7460   -0.8500   -1.7150 hc        1 MOL      0.077613
    152 H70        -8.8750   -1.3830   -0.5670 hc        1 MOL      0.077613
    153 H71        -9.0700   -3.5980   -1.4380 hc        1 MOL      0.033044
    154 H72        -7.7910   -3.2500   -2.5920 hc        1 MOL      0.033044
    155 H73        -9.0470   -1.4090   -3.5890 hc        1 MOL      0.050793
    156 H74       -10.4710   -1.7050   -2.6090 hc        1 MOL      0.050793
    157 H75       -10.9810   -2.7630   -4.5230 hx        1 MOL      0.048487
    158 H76       -10.4760   -4.1420   -3.6720 hx        1 MOL      0.048487
    159 H77        -8.7470   -2.5820   -5.5010 hn        1 MOL      0.300483
    160 H78        -8.3530   -3.9870   -4.9350 hn        1 MOL      0.300483
    161 H79        -9.6760   -3.8140   -5.9790 hn        1 MOL      0.300483
    162 N14        -4.7460   -3.3500   -0.1350 n         1 MOL     -0.493280
    163 C49        -3.3680   -3.8120   -0.6100 c3        1 MOL      0.299415
    164 C50        -2.2210   -3.0880    0.1540 c         1 MOL      0.381307
    165 O22        -1.7230   -2.0180   -0.2700 o         1 MOL     -0.602544
    166 C51        -3.2920   -5.3430   -0.9170 c3        1 MOL      0.060155
    167 C52        -4.3880   -5.7690   -1.9410 c3        1 MOL     -0.026512
    168 C53        -4.1950   -7.2290   -2.4160 c         1 MOL      0.596503
    169 O23        -5.2390   -7.9010   -2.2150 o         1 MOL     -0.658844
    170 O24        -3.0710   -7.6800   -2.7490 o         1 MOL     -0.658844
    171 H80        -5.0330   -3.5980    0.8090 hn        1 MOL      0.299620
    172 H81        -3.1950   -3.3930   -1.6030 h1        1 MOL      0.045258
    173 H82        -3.5630   -5.8160    0.0360 hc        1 MOL     -0.007839
    174 H83        -2.2990   -5.5950   -1.2880 hc        1 MOL     -0.007839
    175 H84        -4.2810   -5.1890   -2.8570 hc        1 MOL     -0.044745
    176 H85        -5.3930   -5.6660   -1.5340 hc        1 MOL     -0.044745
    177 N15        -1.8170   -3.4750    1.3870 n         1 MOL     -0.262870
    178 C54        -2.0150   -4.6430    2.2290 c3        1 MOL     -0.168027
    179 H86        -2.3880   -4.3280    3.2040 h1        1 MOL      0.077283
    180 H87        -2.7390   -5.3100    1.7630 h1        1 MOL      0.077283
    181 H88        -1.0670   -5.1650    2.3560 h1        1 MOL      0.077283
    182 H89        -1.2200   -2.7400    1.7300 hn        1 MOL      0.305970
    183 Ca1        -0.4600    0.4140   -0.8690 Ca        1 MOL      1.834776
    184 O25         1.2020   -0.7600   -2.6560 oh        1 MOL     -0.909292
    185 H90         2.0440   -0.5240   -2.2640 ho        1 MOL      0.442613
    186 H91         1.3790   -0.8090   -3.5950 ho        1 MOL      0.442613
    187 O26        -1.6110   -0.6820   -3.1440 oh        1 MOL     -0.909292
    188 H92        -1.6500   -0.2060   -3.9860 ho        1 MOL      0.442613
    189 H93        -1.1140   -1.4680   -3.3440 ho        1 MOL      0.442613
    190 O27        -2.9880    0.9160   -1.1380 oh        1 MOL     -0.909292
    191 H94        -3.7890    0.8360   -0.6140 ho        1 MOL      0.442613
    192 H95        -3.1670    0.4070   -1.9360 ho        1 MOL      0.442613
@<TRIPOS>BOND
     1    1    2 1   
     2    1    4 1   
     3    1    5 1   
     4    1    6 1   
     5    2    3 2   
     6    2    7 1   
     7    7    8 1   
     8    7   15 1   
     9    8    9 1   
    10    8   11 1   
    11    8   16 1   
    12    9   10 2   
    13    9   19 1   
    14   11   12 1   
    15   11   17 1   
    16   11   18 1   
    17   12   13 1   
    18   12   14 1   
    19   19   20 1   
    20   19   28 1   
    21   20   21 1   
    22   20   23 1   
    23   20   29 1   
    24   21   22 2   
    25   21   41 1   
    26   23   24 1   
    27   23   30 1   
    28   23   31 1   
    29   24   25 1   
    30   24   32 1   
    31   24   33 1   
    32   25   26 1   
    33   25   34 1   
    34   25   35 1   
    35   26   27 1   
    36   26   36 1   
    37   26   37 1   
    38   27   38 1   
    39   27   39 1   
    40   27   40 1   
    41   41   42 1   
    42   41   49 1   
    43   42   43 1   
    44   42   45 1   
    45   42   50 1   
    46   43   44 2   
    47   43   53 1   
    48   45   46 1   
    49   45   51 1   
    50   45   52 1   
    51   46   47 1   
    52   46   48 1   
    53   53   54 1   
    54   53   57 1   
    55   54   55 1   
    56   54   58 1   
    57   54   59 1   
    58   55   56 2   
    59   55   60 1   
    60   60   61 1   
    61   60   68 1   
    62   61   62 1   
    63   61   64 1   
    64   61   69 1   
    65   62   63 2   
    66   62   72 1   
    67   64   65 1   
    68   64   70 1   
    69   64   71 1   
    70   65   66 1   
    71   65   67 1   
    72   72   73 1   
    73   72   76 1   
    74   73   74 1   
    75   73   77 1   
    76   73   78 1   
    77   74   75 2   
    78   74   79 1   
    79   79   80 1   
    80   79   86 1   
    81   80   81 1   
    82   80   83 1   
    83   80   87 1   
    84   81   82 2   
    85   81   93 1   
    86   83   84 1   
    87   83   85 1   
    88   83   88 1   
    89   84   90 1   
    90   84   91 1   
    91   84   92 1   
    92   85   89 1   
    93   93   94 1   
    94   93  101 1   
    95   94   95 1   
    96   94   97 1   
    97   94  102 1   
    98   95   96 2   
    99   95  112 1   
   100   97   98 1   
   101   97   99 1   
   102   97  103 1   
   103   98  100 1   
   104   98  104 1   
   105   98  105 1   
   106   99  106 1   
   107   99  107 1   
   108   99  108 1   
   109  100  109 1   
   110  100  110 1   
   111  100  111 1   
   112  112  113 1   
   113  112  119 1   
   114  113  114 1   
   115  113  116 1   
   116  113  120 1   
   117  114  115 2   
   118  114  126 1   
   119  116  117 1   
   120  116  118 1   
   121  116  121 1   
   122  117  123 1   
   123  117  124 1   
   124  117  125 1   
   125  118  122 1   
   126  126  127 1   
   127  126  133 1   
   128  127  128 1   
   129  127  130 1   
   130  127  134 1   
   131  128  129 2   
   132  128  140 1   
   133  130  131 1   
   134  130  132 1   
   135  130  135 1   
   136  131  137 1   
   137  131  138 1   
   138  131  139 1   
   139  132  136 1   
   140  140  141 1   
   141  140  149 1   
   142  141  142 1   
   143  141  144 1   
   144  141  150 1   
   145  142  143 2   
   146  142  162 1   
   147  144  145 1   
   148  144  151 1   
   149  144  152 1   
   150  145  146 1   
   151  145  153 1   
   152  145  154 1   
   153  146  147 1   
   154  146  155 1   
   155  146  156 1   
   156  147  148 1   
   157  147  157 1   
   158  147  158 1   
   159  148  159 1   
   160  148  160 1   
   161  148  161 1   
   162  162  163 1   
   163  162  171 1   
   164  163  164 1   
   165  163  166 1   
   166  163  172 1   
   167  164  165 2   
   168  164  177 1   
   169  166  167 1   
   170  166  173 1   
   171  166  174 1   
   172  167  168 1   
   173  167  175 1   
   174  167  176 1   
   175  168  169 1   
   176  168  170 1   
   177  177  178 1   
   178  177  182 1   
   179  178  179 1   
   180  178  180 1   
   181  178  181 1   
   182  184  185 1   
   183  184  186 1   
   184  187  188 1   
   185  187  189 1   
   186  190  191 1   
   187  190  192 1   
@<TRIPOS>SUBSTRUCTURE
     1 MOL         1 TEMP              0 ****  ****    0 ROOT
