@<TRIPOS>MOLECULE
MOL
  181   177     1     0     0
SMALL
resp


@<TRIPOS>ATOM
      1 C1         10.7730    6.2950   -1.9800 c3        1 MOL     -0.350799
      2 C2          9.5690    5.5240   -1.5050 c         1 MOL      0.597550
      3 O1          8.7110    6.0350   -0.8180 o         1 MOL     -0.578635
      4 H1         11.1400    6.9280   -1.1720 hc        1 MOL      0.084640
      5 H2         11.5560    5.5980   -2.2780 hc        1 MOL      0.084640
      6 H3         10.4950    6.9160   -2.8310 hc        1 MOL      0.084640
      7 N1          9.4260    4.2320   -1.7850 n         1 MOL     -0.303622
      8 C3         10.3180    3.3580   -2.5040 c3        1 MOL     -0.045907
      9 C4         11.2240    2.5040   -1.5710 c         1 MOL      0.517411
     10 O2         11.8520    1.5480   -1.9380 o         1 MOL     -0.524124
     11 C5          9.4430    2.4480   -3.4150 c3        1 MOL     -0.309887
     12 C6          8.3990    1.5390   -2.6910 c         1 MOL      0.761660
     13 O3          7.8820    0.5800   -3.2640 o         1 MOL     -0.695834
     14 O4          8.0950    1.8100   -1.4740 o         1 MOL     -0.695834
     15 H4          8.6110    3.7650   -1.4260 hn        1 MOL      0.195738
     16 H5         11.0030    3.8540   -3.1880 h1        1 MOL      0.113929
     17 H6          9.9870    1.8110   -4.1020 hc        1 MOL      0.083599
     18 H7          8.8500    3.0540   -4.1100 hc        1 MOL      0.083599
     19 N2         11.2690    2.9420   -0.2870 n         1 MOL     -0.519311
     20 C7         12.0990    2.3210    0.7870 c3        1 MOL      0.180784
     21 C8         11.5770    0.8900    1.2070 c         1 MOL      0.396856
     22 O5         12.2750    0.1280    1.8960 o         1 MOL     -0.559418
     23 C9         12.1720    3.2900    1.9540 c3        1 MOL     -0.286530
     24 H8         10.6350    3.6590    0.0320 hn        1 MOL      0.336521
     25 H9         13.1390    2.1450    0.5150 h1        1 MOL      0.061908
     26 H10        12.6460    4.2530    1.7310 hc        1 MOL      0.084439
     27 H11        11.1490    3.5630    2.2260 hc        1 MOL      0.084439
     28 H12        12.7470    2.8450    2.7590 hc        1 MOL      0.084439
     29 N3         10.3550    0.4050    0.8820 n         1 MOL     -0.144156
     30 C10         9.7920   -0.9070    1.2980 c3        1 MOL      0.023379
     31 C11         8.9740   -1.5710    0.2070 c         1 MOL      0.334075
     32 O6          8.4570   -0.9150   -0.7440 o         1 MOL     -0.495072
     33 C12         8.9220   -0.7880    2.5610 c3        1 MOL     -0.240824
     34 C13         7.7120    0.1300    2.2830 c         1 MOL      0.759395
     35 O7          6.8270   -0.3400    1.5920 o         1 MOL     -0.718360
     36 O8          7.6560    1.3240    2.6610 o         1 MOL     -0.718360
     37 H13         9.7380    1.0920    0.4950 hn        1 MOL      0.189707
     38 H14        10.5700   -1.6100    1.6030 h1        1 MOL      0.076714
     39 H15         9.5560   -0.2390    3.2560 hc        1 MOL      0.059492
     40 H16         8.5490   -1.7520    2.9020 hc        1 MOL      0.059492
     41 N4          8.8180   -2.8820    0.2180 n         1 MOL     -0.262420
     42 C14         8.0010   -3.7680   -0.6410 c3        1 MOL     -0.257087
     43 C15         6.4770   -3.4560   -0.7970 c         1 MOL      0.683272
     44 O9          6.0000   -2.3360   -0.6670 o         1 MOL     -0.462259
     45 H17         9.3020   -3.3460    0.9810 hn        1 MOL      0.266056
     46 H18         8.2730   -4.7720   -0.3200 h1        1 MOL      0.126968
     47 H19         8.3450   -3.6610   -1.6710 h1        1 MOL      0.126968
     48 N5          5.7350   -4.4960   -1.1570 n         1 MOL     -0.655421
     49 C16         4.3350   -4.3380   -1.4320 c3        1 MOL      0.411244
     50 C17         3.4940   -4.0420   -0.1530 c         1 MOL      0.403840
     51 O10         3.9540   -4.2110    0.9790 o         1 MOL     -0.466362
     52 C18         3.8910   -5.5440   -2.2740 c3        1 MOL     -0.127271
     53 C19         2.5760   -5.3230   -2.9700 c         1 MOL      0.665063
     54 N6          1.9000   -6.4200   -3.3170 n         1 MOL     -0.864269
     55 O11         2.3400   -4.2390   -3.3820 o         1 MOL     -0.528041
     56 H20         6.1370   -5.4280   -1.2240 hn        1 MOL      0.303197
     57 H21         4.2780   -3.4400   -2.0400 h1        1 MOL     -0.092523
     58 H22         3.7420   -6.4410   -1.6800 hc        1 MOL      0.024509
     59 H23         4.6870   -5.7650   -2.9890 hc        1 MOL      0.024509
     60 H24         2.1280   -7.3320   -2.9580 hn        1 MOL      0.397889
     61 H25         1.1330   -6.2410   -3.9530 hn        1 MOL      0.397889
     62 N7          2.1860   -3.6610   -0.3590 n         1 MOL     -0.611626
     63 C20         1.2940   -3.4200    0.7860 c3        1 MOL      0.202004
     64 C21         1.6250   -2.1130    1.5280 c         1 MOL      0.547654
     65 O12         2.5650   -1.3620    1.1940 o         1 MOL     -0.550034
     66 H26         1.7790   -3.6670   -1.2890 hn        1 MOL      0.345732
     67 H27         1.2520   -4.2680    1.4790 h1        1 MOL      0.040094
     68 H28         0.3090   -3.3450    0.3160 h1        1 MOL      0.040094
     69 N8          0.8550   -1.8060    2.5420 n         1 MOL     -0.458094
     70 C22        -0.2960   -2.5870    3.1550 c3        1 MOL      0.013964
     71 C23        -1.7010   -1.9610    2.8680 c         1 MOL      0.459174
     72 O13        -2.6680   -2.6620    3.0480 o         1 MOL     -0.511091
     73 C24        -0.0190   -2.8920    4.6670 c3        1 MOL      0.423453
     74 C25         1.3840   -3.5470    4.8670 c3        1 MOL     -0.451385
     75 O14        -0.0090   -1.6990    5.3770 oh        1 MOL     -0.594589
     76 H29         0.9550   -0.8570    2.8700 hn        1 MOL      0.312129
     77 H30        -0.3600   -3.5270    2.6170 h1        1 MOL      0.031237
     78 H31        -0.8500   -3.5250    4.9830 h1        1 MOL     -0.020691
     79 H32        -0.6480   -1.9240    6.0600 ho        1 MOL      0.384792
     80 H33         2.1230   -2.7710    4.7260 hc        1 MOL      0.115791
     81 H34         1.4990   -4.0210    5.8470 hc        1 MOL      0.115791
     82 H35         1.4640   -4.3260    4.0970 hc        1 MOL      0.115791
     83 N9         -1.7790   -0.6520    2.5760 n         1 MOL     -0.405894
     84 C26        -3.0240    0.0860    2.5860 c3        1 MOL      0.015698
     85 C27        -3.2620    0.5070    1.1340 c         1 MOL      0.552220
     86 O15        -2.4890    1.1990    0.5310 o         1 MOL     -0.588630
     87 C28        -3.0920    1.0840    3.8310 c3        1 MOL     -0.001036
     88 C29        -2.9000    0.3330    5.2150 c3        1 MOL      0.203305
     89 C30        -4.3890    1.8930    3.8480 c3        1 MOL     -0.329024
     90 C31        -2.6140    1.2500    6.3670 c3        1 MOL     -0.322343
     91 H36        -0.9690   -0.0600    2.4430 hn        1 MOL      0.250531
     92 H37        -3.7180   -0.7320    2.7540 h1        1 MOL      0.066318
     93 H38        -2.2350    1.7360    3.7120 hc        1 MOL      0.052834
     94 H39        -2.1370   -0.4430    5.1340 hc        1 MOL     -0.032294
     95 H40        -3.7110   -0.3800    5.3830 hc        1 MOL     -0.032294
     96 H41        -4.0470    2.8580    4.2320 hc        1 MOL      0.108774
     97 H42        -4.9120    1.9410    2.8830 hc        1 MOL      0.108774
     98 H43        -5.1990    1.4330    4.4070 hc        1 MOL      0.108774
     99 H44        -1.7750    1.8620    6.0500 hc        1 MOL      0.069582
    100 H45        -3.5020    1.8440    6.5710 hc        1 MOL      0.069582
    101 H46        -2.3060    0.6210    7.2080 hc        1 MOL      0.069582
    102 N10        -4.3770    0.2880    0.3920 n         1 MOL     -0.285161
    103 C32        -5.4530   -0.6230    0.7140 c3        1 MOL     -0.041558
    104 C33        -6.8060   -0.3260    0.0120 c         1 MOL      0.406954
    105 O16        -6.9330    0.6080   -0.8000 o         1 MOL     -0.506057
    106 C34        -4.8960   -1.9870    0.3090 c3        1 MOL     -0.102623
    107 C35        -4.0530   -1.9570   -0.9780 c         1 MOL      0.651220
    108 O17        -2.8620   -2.3400   -0.9360 o         1 MOL     -0.698897
    109 O18        -4.5640   -1.5150   -2.0150 o         1 MOL     -0.698897
    110 H47        -4.3920    0.8400   -0.4540 hn        1 MOL      0.299464
    111 H48        -5.6710   -0.4790    1.7700 h1        1 MOL      0.086107
    112 H49        -5.7420   -2.6690    0.2630 hc        1 MOL     -0.008781
    113 H50        -4.2420   -2.4660    1.0430 hc        1 MOL     -0.008781
    114 N11        -7.8650   -0.9570    0.3070 n         1 MOL     -0.284223
    115 C36        -9.1250   -1.1180   -0.4820 c3        1 MOL      0.301640
    116 C37       -10.2090   -0.3530    0.3090 c         1 MOL      0.119360
    117 O19       -10.4440   -0.6000    1.5070 o         1 MOL     -0.509613
    118 C38        -9.4690   -2.6540   -0.6510 c3        1 MOL     -0.187014
    119 C39       -10.6370   -2.7660   -1.6380 ca        1 MOL      0.034804
    120 C40       -11.9750   -2.4600   -1.2250 ca        1 MOL     -0.162596
    121 C41       -10.3550   -2.9380   -2.9970 ca        1 MOL     -0.162596
    122 C42       -13.0040   -2.3300   -2.1890 ca        1 MOL     -0.153504
    123 C43       -11.4240   -2.8420   -3.9580 ca        1 MOL     -0.153504
    124 C44       -12.6260   -2.4500   -3.5930 ca        1 MOL     -0.054269
    125 H51        -7.7630   -1.6200    1.0600 hn        1 MOL      0.221254
    126 H52        -8.9980   -0.6690   -1.4660 h1        1 MOL      0.025951
    127 H53        -9.7320   -3.0770    0.3110 hc        1 MOL      0.075017
    128 H54        -8.6280   -3.2390   -1.0170 hc        1 MOL      0.075017
    129 H55       -12.2040   -2.2430   -0.1920 ha        1 MOL      0.145333
    130 H56        -9.3650   -3.1660   -3.3570 ha        1 MOL      0.145333
    131 H57       -14.0190   -2.0860   -1.9510 ha        1 MOL      0.114382
    132 H58       -11.2520   -3.0570   -5.0020 ha        1 MOL      0.114382
    133 H59       -13.3810   -2.2660   -4.3490 ha        1 MOL      0.077375
    134 N12       -10.9680    0.5830   -0.3080 n         1 MOL      0.284250
    135 C45       -10.7410    1.1120   -1.6760 c3        1 MOL      0.033426
    136 C46        -9.5340    2.0720   -1.7860 c         1 MOL      0.436597
    137 O20        -9.0580    2.1760   -2.9060 o         1 MOL     -0.574632
    138 C47       -12.0330    1.7660   -1.9720 c3        1 MOL     -0.072932
    139 C48       -13.1250    1.3980   -0.9610 c3        1 MOL     -0.067764
    140 C49       -12.2120    1.0860    0.2090 c3        1 MOL     -0.075102
    141 H60       -10.5750    0.3260   -2.4210 h1        1 MOL      0.046030
    142 H61       -11.8680    2.8410   -1.9550 hc        1 MOL      0.022084
    143 H62       -12.3950    1.4730   -2.9640 hc        1 MOL      0.022084
    144 H63       -13.7750    2.2440   -0.7510 hc        1 MOL      0.025808
    145 H64       -13.6720    0.5550   -1.3960 hc        1 MOL      0.025808
    146 H65       -11.9340    1.9900    0.7700 h1        1 MOL      0.039270
    147 H66       -12.7640    0.3440    0.7900 h1        1 MOL      0.039270
    148 N13        -9.1290    2.7520   -0.7630 n         1 MOL     -0.301734
    149 C50        -7.8830    3.5280   -0.7340 c3        1 MOL      0.302079
    150 C51        -7.9330    4.7240   -1.7120 c         1 MOL      0.353945
    151 O21        -8.5650    5.7800   -1.3800 o         1 MOL     -0.566776
    152 C52        -7.6210    4.0900    0.6280 c3        1 MOL     -0.026949
    153 C53        -7.4970    3.0790    1.7440 c3        1 MOL     -0.078155
    154 C54        -7.8070    3.7960    3.0850 c         1 MOL      0.748014
    155 O22        -8.8370    3.3930    3.7280 o         1 MOL     -0.756064
    156 O23        -7.0490    4.6550    3.5470 o         1 MOL     -0.756064
    157 H67        -9.6670    2.5670    0.0690 hn        1 MOL      0.189388
    158 H68        -7.0350    2.8700   -0.9170 h1        1 MOL      0.018413
    159 H69        -8.4030    4.7770    0.9330 hc        1 MOL      0.009977
    160 H70        -6.7460    4.7330    0.6420 hc        1 MOL      0.009977
    161 H71        -6.5380    2.5620    1.6740 hc        1 MOL     -0.054631
    162 H72        -8.2320    2.2780    1.7300 hc        1 MOL     -0.054631
    163 N14        -7.4290    4.5860   -2.9520 n         1 MOL     -0.329535
    164 C55        -6.5130    3.5910   -3.4460 c3        1 MOL     -0.082956
    165 H73        -7.0370    2.9210   -4.1290 h1        1 MOL      0.063607
    166 H74        -5.6950    4.0800   -3.9750 h1        1 MOL      0.063607
    167 H75        -6.1140    3.0160   -2.6110 h1        1 MOL      0.063607
    168 H76        -7.8460    5.2140   -3.6370 hn        1 MOL      0.266089
    169 Ca1         6.1750    0.1130   -1.1290 Ca        1 MOL      1.719173
    170 O24         5.5550    1.8410    0.6270 oh        1 MOL     -0.839834
    171 H77         5.3160    2.7630    0.6760 ho        1 MOL      0.414558
    172 H78         5.8070    1.6100    1.5220 ho        1 MOL      0.414558
    173 O25         3.4210    0.1250   -0.8580 oh        1 MOL     -0.839834
    174 H79         2.7530    0.0900   -1.5450 ho        1 MOL      0.414558
    175 H80         2.9450   -0.0160   -0.0500 ho        1 MOL      0.414558
    176 O26         5.0750    1.8670   -2.7930 oh        1 MOL     -0.839834
    177 H81         4.1760    2.2110   -2.8250 ho        1 MOL      0.414558
    178 H82         5.4220    2.0110   -3.6710 ho        1 MOL      0.414558
    179 O27         5.5570   -1.3680   -3.3440 oh        1 MOL     -0.839834
    180 H83         5.7420   -2.2840   -3.5180 ho        1 MOL      0.414558
    181 H84         4.7520   -1.1870   -3.8260 ho        1 MOL      0.414558
@<TRIPOS>BOND
     1    1    2 1   
     2    1    4 1   
     3    1    5 1   
     4    1    6 1   
     5    2    3 2   
     6    2    7 1   
     7    7    8 1   
     8    7   15 1   
     9    8    9 1   
    10    8   11 1   
    11    8   16 1   
    12    9   10 2   
    13    9   19 1   
    14   11   12 1   
    15   11   17 1   
    16   11   18 1   
    17   12   13 1   
    18   12   14 1   
    19   19   20 1   
    20   19   24 1   
    21   20   21 1   
    22   20   23 1   
    23   20   25 1   
    24   21   22 2   
    25   21   29 1   
    26   23   26 1   
    27   23   27 1   
    28   23   28 1   
    29   29   30 1   
    30   29   37 1   
    31   30   31 1   
    32   30   33 1   
    33   30   38 1   
    34   31   32 2   
    35   31   41 1   
    36   33   34 1   
    37   33   39 1   
    38   33   40 1   
    39   34   35 1   
    40   34   36 1   
    41   41   42 1   
    42   41   45 1   
    43   42   43 1   
    44   42   46 1   
    45   42   47 1   
    46   43   44 2   
    47   43   48 1   
    48   48   49 1   
    49   48   56 1   
    50   49   50 1   
    51   49   52 1   
    52   49   57 1   
    53   50   51 2   
    54   50   62 1   
    55   52   53 1   
    56   52   58 1   
    57   52   59 1   
    58   53   54 1   
    59   53   55 2   
    60   54   60 1   
    61   54   61 1   
    62   62   63 1   
    63   62   66 1   
    64   63   64 1   
    65   63   67 1   
    66   63   68 1   
    67   64   65 2   
    68   64   69 1   
    69   69   70 1   
    70   69   76 1   
    71   70   71 1   
    72   70   73 1   
    73   70   77 1   
    74   71   72 2   
    75   71   83 1   
    76   73   74 1   
    77   73   75 1   
    78   73   78 1   
    79   74   80 1   
    80   74   81 1   
    81   74   82 1   
    82   75   79 1   
    83   83   84 1   
    84   83   91 1   
    85   84   85 1   
    86   84   87 1   
    87   84   92 1   
    88   85   86 2   
    89   85  102 1   
    90   87   88 1   
    91   87   89 1   
    92   87   93 1   
    93   88   90 1   
    94   88   94 1   
    95   88   95 1   
    96   89   96 1   
    97   89   97 1   
    98   89   98 1   
    99   90   99 1   
   100   90  100 1   
   101   90  101 1   
   102  102  103 1   
   103  102  110 1   
   104  103  104 1   
   105  103  106 1   
   106  103  111 1   
   107  104  105 2   
   108  104  114 1   
   109  106  107 1   
   110  106  112 1   
   111  106  113 1   
   112  107  108 1   
   113  107  109 1   
   114  114  115 1   
   115  114  125 1   
   116  115  116 1   
   117  115  118 1   
   118  115  126 1   
   119  116  117 2   
   120  116  134 1   
   121  118  119 1   
   122  118  127 1   
   123  118  128 1   
   124  119  120 ar  
   125  119  121 ar  
   126  120  122 ar  
   127  120  129 1   
   128  121  123 ar  
   129  121  130 1   
   130  122  124 ar  
   131  122  131 1   
   132  123  124 ar  
   133  123  132 1   
   134  124  133 1   
   135  134  135 1   
   136  134  140 1   
   137  135  136 1   
   138  135  138 1   
   139  135  141 1   
   140  136  137 2   
   141  136  148 1   
   142  138  139 1   
   143  138  142 1   
   144  138  143 1   
   145  139  140 1   
   146  139  144 1   
   147  139  145 1   
   148  140  146 1   
   149  140  147 1   
   150  148  149 1   
   151  148  157 1   
   152  149  150 1   
   153  149  152 1   
   154  149  158 1   
   155  150  151 2   
   156  150  163 1   
   157  152  153 1   
   158  152  159 1   
   159  152  160 1   
   160  153  154 1   
   161  153  161 1   
   162  153  162 1   
   163  154  155 1   
   164  154  156 1   
   165  163  164 1   
   166  163  168 1   
   167  164  165 1   
   168  164  166 1   
   169  164  167 1   
   170  170  171 1   
   171  170  172 1   
   172  173  174 1   
   173  173  175 1   
   174  176  177 1   
   175  176  178 1   
   176  179  180 1   
   177  179  181 1   
@<TRIPOS>SUBSTRUCTURE
     1 MOL         1 TEMP              0 ****  ****    0 ROOT
