@<TRIPOS>MOLECULE
MOL
  192   187     1     0     0
SMALL
resp


@<TRIPOS>ATOM
      1 C1         12.2080   -5.5120    2.1330 c3        1 MOL     -0.325130
      2 C2         11.9420   -4.0590    1.5490 c         1 MOL      0.587639
      3 O1         12.7340   -3.1440    1.8650 o         1 MOL     -0.561283
      4 H1         12.5050   -6.1790    1.3240 hc        1 MOL      0.088160
      5 H2         13.0050   -5.4650    2.8750 hc        1 MOL      0.088160
      6 H3         11.2980   -5.8880    2.5990 hc        1 MOL      0.088160
      7 N1         10.9340   -3.8760    0.7280 n         1 MOL     -0.315423
      8 C3         10.5210   -2.5490    0.2330 c3        1 MOL     -0.033481
      9 C4          9.0870   -2.2850    0.5410 c         1 MOL      0.470926
     10 O2          8.2510   -3.1940    0.4800 o         1 MOL     -0.703693
     11 C5         10.9350   -2.3110   -1.2410 c3        1 MOL     -0.050413
     12 C6         10.5130   -3.4490   -2.2240 c         1 MOL      0.682216
     13 O3          9.6080   -4.1930   -1.8840 o         1 MOL     -0.668811
     14 O4         11.1110   -3.5300   -3.3510 o         1 MOL     -0.668811
     15 H4         10.4120   -4.6630    0.3880 hn        1 MOL      0.147121
     16 H5         11.0540   -1.8170    0.8390 h1        1 MOL      0.057012
     17 H6         12.0150   -2.1590   -1.2450 hc        1 MOL      0.044138
     18 H7         10.5370   -1.3430   -1.5450 hc        1 MOL      0.044138
     19 N2          8.6500   -1.0450    0.7700 n         1 MOL     -0.167909
     20 C7          7.2900   -0.6740    1.2060 c3        1 MOL      0.076366
     21 C8          6.7400    0.2290    0.0500 c         1 MOL      0.481225
     22 O5          7.4580    0.9590   -0.6490 o         1 MOL     -0.519848
     23 C9          7.3130    0.0390    2.5210 c3        1 MOL     -0.249447
     24 C10         7.6440   -1.0380    3.5150 c3        1 MOL      0.049777
     25 C11         7.2920   -0.4320    4.8910 c3        1 MOL      0.004977
     26 C12         7.4620   -1.4040    6.0260 c3        1 MOL      0.053852
     27 N3          7.2540   -0.7970    7.3090 n4        1 MOL     -0.219307
     28 H8          9.2640   -0.2630    0.6360 hn        1 MOL      0.211309
     29 H9          6.6370   -1.5440    1.2980 h1        1 MOL      0.130336
     30 H10         6.3250    0.4250    2.7510 hc        1 MOL      0.092962
     31 H11         7.9880    0.8910    2.4380 hc        1 MOL      0.092962
     32 H12         8.6830   -1.3620    3.4090 hc        1 MOL      0.000241
     33 H13         7.0480   -1.9500    3.4140 hc        1 MOL      0.000241
     34 H14         6.2240   -0.1870    4.9100 hc        1 MOL      0.022720
     35 H15         7.8140    0.5190    4.9520 hc        1 MOL      0.022720
     36 H16         8.4950   -1.7660    5.9640 hx        1 MOL      0.059151
     37 H17         6.8130   -2.2820    5.9270 hx        1 MOL      0.059151
     38 H18         6.2900   -0.5320    7.4440 hn        1 MOL      0.246796
     39 H19         7.6080   -1.4030    8.0380 hn        1 MOL      0.246796
     40 H20         7.7530    0.0810    7.3200 hn        1 MOL      0.246796
     41 N4          5.4990    0.0050   -0.2870 n         1 MOL     -0.396123
     42 C13         4.9060    0.3610   -1.5740 c3        1 MOL      0.104995
     43 C14         3.4010    0.4750   -1.5180 c         1 MOL      0.418406
     44 O6          2.7170   -0.1780   -0.6860 o         1 MOL     -0.534603
     45 C15         5.2150   -0.6310   -2.7670 c3        1 MOL      0.162750
     46 C16         5.7890   -1.9090   -2.3790 c         1 MOL      0.490640
     47 O7          7.0160   -2.1300   -2.5510 o         1 MOL     -0.731837
     48 O8          5.1380   -2.8400   -1.8440 o         1 MOL     -0.731837
     49 H21         4.8990   -0.5120    0.3360 hn        1 MOL      0.236613
     50 H22         5.3230    1.3430   -1.7890 h1        1 MOL      0.108822
     51 H23         5.9960   -0.0740   -3.2970 hc        1 MOL      0.004814
     52 H24         4.4060   -0.7650   -3.4750 hc        1 MOL      0.004814
     53 N5          2.7100    1.4040   -2.2000 n         1 MOL     -0.401131
     54 C17         3.1620    2.4770   -3.0270 c3        1 MOL     -0.096733
     55 C18         3.3900    3.8320   -2.4010 c         1 MOL      0.676448
     56 O9          3.8270    3.8860   -1.2510 o         1 MOL     -0.599483
     57 H25         1.7050    1.3760   -2.0720 hn        1 MOL      0.320165
     58 H26         2.4160    2.4990   -3.8200 h1        1 MOL      0.060141
     59 H27         4.0880    2.2150   -3.5270 h1        1 MOL      0.060141
     60 N6          3.1900    4.9670   -3.0730 n         1 MOL     -0.436323
     61 C19         3.7490    6.2360   -2.5450 c3        1 MOL     -0.042200
     62 C20         2.6190    6.9310   -1.7160 c         1 MOL      0.422149
     63 O10         2.9760    7.7370   -0.8550 o         1 MOL     -0.482149
     64 C21         4.2010    7.0820   -3.7530 c3        1 MOL     -0.100193
     65 C22         3.1350    7.2850   -4.8580 c         1 MOL      0.698985
     66 O11         3.1350    6.4830   -5.7700 o         1 MOL     -0.659717
     67 O12         2.3380    8.2670   -4.7020 o         1 MOL     -0.659717
     68 H28         2.8310    4.9470   -4.0190 hn        1 MOL      0.223239
     69 H29         4.6470    6.0430   -1.9690 h1        1 MOL      0.125304
     70 H30         5.0950    6.7360   -4.2720 hc        1 MOL      0.027124
     71 H31         4.4290    8.0590   -3.3360 hc        1 MOL      0.027124
     72 N7          1.3170    6.6240   -1.8940 n         1 MOL     -0.209374
     73 C23         0.2830    7.1180   -1.0000 c3        1 MOL     -0.134062
     74 C24         0.1850    6.3090    0.2600 c         1 MOL      0.499796
     75 O13         0.0230    6.8650    1.3640 o         1 MOL     -0.534578
     76 H32         1.0080    6.0980   -2.6920 hn        1 MOL      0.236737
     77 H33        -0.6960    7.0530   -1.4810 h1        1 MOL      0.102052
     78 H34         0.4600    8.1520   -0.7110 h1        1 MOL      0.102052
     79 N8          0.4050    4.9750    0.1930 n         1 MOL     -0.311751
     80 C25         0.4760    4.1580    1.4790 c3        1 MOL     -0.225428
     81 C26         0.0360    2.7020    1.1880 c         1 MOL      0.606229
     82 O14         0.3660    2.2820    0.0640 o         1 MOL     -0.489046
     83 C27         1.9340    4.0150    1.9880 c3        1 MOL      0.346478
     84 C28         2.6920    5.2970    2.1750 c3        1 MOL     -0.378153
     85 O15         1.9450    3.4530    3.2590 oh        1 MOL     -0.652563
     86 H35         0.5370    4.4050   -0.6270 hn        1 MOL      0.201699
     87 H36        -0.0900    4.6930    2.2500 h1        1 MOL      0.090855
     88 H37         2.5000    3.4090    1.2770 h1        1 MOL      0.078680
     89 H38         1.6900    4.1080    3.9200 ho        1 MOL      0.384244
     90 H39         2.8950    5.8800    1.2760 hc        1 MOL      0.110296
     91 H40         2.2030    5.9750    2.8660 hc        1 MOL      0.110296
     92 H41         3.6410    5.1240    2.6610 hc        1 MOL      0.110296
     93 N9         -0.6250    1.9500    2.0690 n         1 MOL     -0.345341
     94 C29        -1.0770    0.5540    1.6890 c3        1 MOL     -0.235977
     95 C30        -2.4350    0.6500    1.0050 c         1 MOL      0.637507
     96 O16        -2.6730    0.0070   -0.0330 o         1 MOL     -0.529278
     97 C31        -1.1450   -0.4430    2.9060 c3        1 MOL      0.166538
     98 C32         0.1590   -0.5280    3.6790 c3        1 MOL      0.046355
     99 C33        -1.4910   -1.8620    2.4150 c3        1 MOL     -0.283049
    100 C34         0.1840   -1.3180    4.9710 c3        1 MOL     -0.297245
    101 H42        -0.7210    2.3050    3.0090 hn        1 MOL      0.271962
    102 H43        -0.3450    0.1620    0.9850 h1        1 MOL      0.128186
    103 H44        -1.9300   -0.2410    3.6380 hc        1 MOL      0.008958
    104 H45         0.5600    0.4750    3.8120 hc        1 MOL      0.021196
    105 H46         0.8950   -1.0760    3.0910 hc        1 MOL      0.021196
    106 H47        -0.7960   -2.2010    1.6400 hc        1 MOL      0.084303
    107 H48        -1.4100   -2.6100    3.2140 hc        1 MOL      0.084303
    108 H49        -2.4600   -1.8730    1.9180 hc        1 MOL      0.084303
    109 H50         1.2330   -1.4770    5.2330 hc        1 MOL      0.069516
    110 H51        -0.3510   -0.7900    5.7500 hc        1 MOL      0.069516
    111 H52        -0.3080   -2.2920    4.9220 hc        1 MOL      0.069516
    112 N10        -3.3020    1.5250    1.5300 n         1 MOL     -0.468231
    113 C35        -4.5350    2.0930    0.9610 c3        1 MOL     -0.061339
    114 C36        -5.6710    2.0580    1.9720 c         1 MOL      0.663969
    115 O17        -5.4790    2.1370    3.1860 o         1 MOL     -0.571952
    116 C37        -4.3360    3.5030    0.4640 c3        1 MOL      0.305783
    117 C38        -3.2210    3.5200   -0.5630 c3        1 MOL     -0.294724
    118 O18        -5.4730    3.9260   -0.2970 oh        1 MOL     -0.635387
    119 H53        -2.8900    2.0940    2.2540 hn        1 MOL      0.205040
    120 H54        -4.8400    1.4200    0.1660 h1        1 MOL      0.090614
    121 H55        -4.2220    4.2830    1.2150 h1        1 MOL      0.080220
    122 H56        -5.4450    3.5190   -1.1680 ho        1 MOL      0.384120
    123 H57        -2.2560    3.5060   -0.0690 hc        1 MOL      0.087331
    124 H58        -3.2300    2.6940   -1.2650 hc        1 MOL      0.087331
    125 H59        -3.2820    4.4380   -1.1420 hc        1 MOL      0.087331
    126 N11        -6.8680    1.8770    1.5100 n         1 MOL     -0.521168
    127 C39        -8.0780    1.9560    2.2650 c3        1 MOL      0.033134
    128 C40        -8.9460    0.6820    2.1330 c         1 MOL      0.578747
    129 O19        -9.6040    0.2450    3.0590 o         1 MOL     -0.542833
    130 C41        -8.8940    3.1980    1.7760 c3        1 MOL      0.255580
    131 C42       -10.2640    3.3890    2.3150 c3        1 MOL     -0.305680
    132 O20        -9.1270    3.2470    0.4150 oh        1 MOL     -0.619179
    133 H60        -6.8480    1.7520    0.5110 hn        1 MOL      0.285052
    134 H61        -7.8880    2.1410    3.3230 h1        1 MOL      0.105368
    135 H62        -8.3050    4.1080    1.9580 h1        1 MOL      0.036822
    136 H63        -9.3140    4.1790    0.3150 ho        1 MOL      0.417694
    137 H64       -10.2640    3.4010    3.4090 hc        1 MOL      0.075816
    138 H65       -10.6290    4.3280    1.9050 hc        1 MOL      0.075816
    139 H66       -10.8750    2.5900    1.9050 hc        1 MOL      0.075816
    140 N12        -9.0930    0.1690    0.8890 n         1 MOL     -0.492178
    141 C43        -9.9490   -0.9770    0.5100 c3        1 MOL      0.124580
    142 C44        -9.5000   -1.6940   -0.7610 c         1 MOL      0.501057
    143 O21        -8.9650   -1.0970   -1.6970 o         1 MOL     -0.486325
    144 C45       -11.4020   -0.3880    0.2710 c3        1 MOL     -0.292959
    145 C46       -12.4510   -1.4670    0.0410 c3        1 MOL      0.090731
    146 C47       -13.8830   -0.9200    0.2010 c3        1 MOL     -0.036245
    147 C48       -14.9110   -2.0310    0.0560 c3        1 MOL      0.131567
    148 N13       -16.2530   -1.5070   -0.0250 n4        1 MOL     -0.354070
    149 H67        -8.5500    0.5940    0.1610 hn        1 MOL      0.280352
    150 H68        -9.9590   -1.6320    1.3880 h1        1 MOL      0.073518
    151 H69       -11.3130    0.2220   -0.6230 hc        1 MOL      0.122705
    152 H70       -11.6400    0.2130    1.1480 hc        1 MOL      0.122705
    153 H71       -12.4040   -2.2050    0.8450 hc        1 MOL      0.020261
    154 H72       -12.3890   -1.9760   -0.9190 hc        1 MOL      0.020261
    155 H73       -13.9650   -0.1990   -0.6160 hc        1 MOL      0.019635
    156 H74       -14.0450   -0.4750    1.1810 hc        1 MOL      0.019635
    157 H75       -14.8310   -2.5750    0.9910 hx        1 MOL      0.050822
    158 H76       -14.5830   -2.6490   -0.7820 hx        1 MOL      0.050822
    159 H77       -16.6110   -1.0910    0.8270 hn        1 MOL      0.286058
    160 H78       -16.3480   -0.9020   -0.8340 hn        1 MOL      0.286058
    161 H79       -16.9010   -2.2530   -0.2020 hn        1 MOL      0.286058
    162 N14        -9.7010   -3.0080   -0.8040 n         1 MOL     -0.468598
    163 C49        -9.2420   -3.8810   -1.8390 c3        1 MOL      0.180428
    164 C50        -7.7510   -3.8560   -2.1880 c         1 MOL      0.343117
    165 O22        -7.4150   -3.7490   -3.3550 o         1 MOL     -0.516220
    166 C51        -9.8290   -5.2860   -1.5590 c3        1 MOL      0.082305
    167 C52        -9.6660   -6.3050   -2.7070 c3        1 MOL     -0.161879
    168 C53       -10.1970   -7.7080   -2.3330 c         1 MOL      0.691436
    169 O23       -10.1540   -8.0710   -1.1490 o         1 MOL     -0.662816
    170 O24       -10.7810   -8.3070   -3.2530 o         1 MOL     -0.662816
    171 H80       -10.1030   -3.3980    0.0380 hn        1 MOL      0.225808
    172 H81        -9.6950   -3.5370   -2.7650 h1        1 MOL      0.042769
    173 H82       -10.8670   -5.0670   -1.2980 hc        1 MOL     -0.025284
    174 H83        -9.3900   -5.6920   -0.6530 hc        1 MOL     -0.025284
    175 H84        -8.6130   -6.4180   -2.9650 hc        1 MOL      0.034674
    176 H85       -10.1800   -5.9110   -3.5840 hc        1 MOL      0.034674
    177 N15        -6.8080   -4.0580   -1.2740 n         1 MOL     -0.270714
    178 C54        -7.0270   -4.4330    0.1110 c3        1 MOL     -0.063925
    179 H86        -7.0860   -3.5350    0.7260 h1        1 MOL      0.052085
    180 H87        -7.9610   -4.9900    0.1930 h1        1 MOL      0.052085
    181 H88        -6.2010   -5.0560    0.4540 h1        1 MOL      0.052085
    182 H89        -5.8450   -3.8820   -1.5400 hn        1 MOL      0.279817
    183 Ca1         7.0800   -4.5710   -1.3680 Ca        1 MOL      1.681103
    184 O25         5.7680   -4.8370    1.0370 oh        1 MOL     -0.789171
    185 H90         6.3580   -4.6800    1.7710 ho        1 MOL      0.401031
    186 H91         5.5370   -5.7620    1.0980 ho        1 MOL      0.401031
    187 O26         7.7800   -5.3060   -3.9400 oh        1 MOL     -0.789171
    188 H92         6.9620   -5.4810   -4.4040 ho        1 MOL      0.401031
    189 H93         8.3860   -5.0020   -4.6270 ho        1 MOL      0.401031
    190 O27         4.6500   -6.5930   -0.5550 oh        1 MOL     -0.789171
    191 H94         4.8730   -6.4340   -1.4710 ho        1 MOL      0.401031
    192 H95         4.0220   -7.3050   -0.5800 ho        1 MOL      0.401031
@<TRIPOS>BOND
     1    1    2 1   
     2    1    4 1   
     3    1    5 1   
     4    1    6 1   
     5    2    3 2   
     6    2    7 1   
     7    7    8 1   
     8    7   15 1   
     9    8    9 1   
    10    8   11 1   
    11    8   16 1   
    12    9   10 2   
    13    9   19 1   
    14   11   12 1   
    15   11   17 1   
    16   11   18 1   
    17   12   13 1   
    18   12   14 1   
    19   19   20 1   
    20   19   28 1   
    21   20   21 1   
    22   20   23 1   
    23   20   29 1   
    24   21   22 2   
    25   21   41 1   
    26   23   24 1   
    27   23   30 1   
    28   23   31 1   
    29   24   25 1   
    30   24   32 1   
    31   24   33 1   
    32   25   26 1   
    33   25   34 1   
    34   25   35 1   
    35   26   27 1   
    36   26   36 1   
    37   26   37 1   
    38   27   38 1   
    39   27   39 1   
    40   27   40 1   
    41   41   42 1   
    42   41   49 1   
    43   42   43 1   
    44   42   45 1   
    45   42   50 1   
    46   43   44 2   
    47   43   53 1   
    48   45   46 1   
    49   45   51 1   
    50   45   52 1   
    51   46   47 1   
    52   46   48 1   
    53   53   54 1   
    54   53   57 1   
    55   54   55 1   
    56   54   58 1   
    57   54   59 1   
    58   55   56 2   
    59   55   60 1   
    60   60   61 1   
    61   60   68 1   
    62   61   62 1   
    63   61   64 1   
    64   61   69 1   
    65   62   63 2   
    66   62   72 1   
    67   64   65 1   
    68   64   70 1   
    69   64   71 1   
    70   65   66 1   
    71   65   67 1   
    72   72   73 1   
    73   72   76 1   
    74   73   74 1   
    75   73   77 1   
    76   73   78 1   
    77   74   75 2   
    78   74   79 1   
    79   79   80 1   
    80   79   86 1   
    81   80   81 1   
    82   80   83 1   
    83   80   87 1   
    84   81   82 2   
    85   81   93 1   
    86   83   84 1   
    87   83   85 1   
    88   83   88 1   
    89   84   90 1   
    90   84   91 1   
    91   84   92 1   
    92   85   89 1   
    93   93   94 1   
    94   93  101 1   
    95   94   95 1   
    96   94   97 1   
    97   94  102 1   
    98   95   96 2   
    99   95  112 1   
   100   97   98 1   
   101   97   99 1   
   102   97  103 1   
   103   98  100 1   
   104   98  104 1   
   105   98  105 1   
   106   99  106 1   
   107   99  107 1   
   108   99  108 1   
   109  100  109 1   
   110  100  110 1   
   111  100  111 1   
   112  112  113 1   
   113  112  119 1   
   114  113  114 1   
   115  113  116 1   
   116  113  120 1   
   117  114  115 2   
   118  114  126 1   
   119  116  117 1   
   120  116  118 1   
   121  116  121 1   
   122  117  123 1   
   123  117  124 1   
   124  117  125 1   
   125  118  122 1   
   126  126  127 1   
   127  126  133 1   
   128  127  128 1   
   129  127  130 1   
   130  127  134 1   
   131  128  129 2   
   132  128  140 1   
   133  130  131 1   
   134  130  132 1   
   135  130  135 1   
   136  131  137 1   
   137  131  138 1   
   138  131  139 1   
   139  132  136 1   
   140  140  141 1   
   141  140  149 1   
   142  141  142 1   
   143  141  144 1   
   144  141  150 1   
   145  142  143 2   
   146  142  162 1   
   147  144  145 1   
   148  144  151 1   
   149  144  152 1   
   150  145  146 1   
   151  145  153 1   
   152  145  154 1   
   153  146  147 1   
   154  146  155 1   
   155  146  156 1   
   156  147  148 1   
   157  147  157 1   
   158  147  158 1   
   159  148  159 1   
   160  148  160 1   
   161  148  161 1   
   162  162  163 1   
   163  162  171 1   
   164  163  164 1   
   165  163  166 1   
   166  163  172 1   
   167  164  165 2   
   168  164  177 1   
   169  166  167 1   
   170  166  173 1   
   171  166  174 1   
   172  167  168 1   
   173  167  175 1   
   174  167  176 1   
   175  168  169 1   
   176  168  170 1   
   177  177  178 1   
   178  177  182 1   
   179  178  179 1   
   180  178  180 1   
   181  178  181 1   
   182  184  185 1   
   183  184  186 1   
   184  187  188 1   
   185  187  189 1   
   186  190  191 1   
   187  190  192 1   
@<TRIPOS>SUBSTRUCTURE
     1 MOL         1 TEMP              0 ****  ****    0 ROOT
