@<TRIPOS>MOLECULE
MOL
  178   175     1     0     0
SMALL
resp


@<TRIPOS>ATOM
      1 C1         -5.3020    7.9760    2.5350 c3        1 MOL     -0.308133
      2 C2         -6.1950    7.4800    1.3240 c         1 MOL      0.684474
      3 O1         -6.1160    8.1900    0.3310 o         1 MOL     -0.571848
      4 H1         -4.8420    7.1160    3.0210 hc        1 MOL      0.064918
      5 H2         -4.5240    8.6430    2.1640 hc        1 MOL      0.064918
      6 H3         -5.9260    8.5080    3.2530 hc        1 MOL      0.064918
      7 N1         -7.1190    6.5110    1.4780 n         1 MOL     -0.605320
      8 C3         -7.9330    5.9820    0.3300 c3        1 MOL      0.204458
      9 C4         -7.1430    5.0160   -0.4330 c         1 MOL      0.454074
     10 O2         -7.4980    4.8500   -1.5540 o         1 MOL     -0.518728
     11 C5         -9.0770    5.3410    1.0180 c3        1 MOL     -0.071524
     12 C6        -10.1650    4.9290    0.0770 c         1 MOL      0.750961
     13 O3        -10.7420    3.8380    0.3720 o         1 MOL     -0.744425
     14 O4        -10.6070    5.7700   -0.7400 o         1 MOL     -0.744425
     15 H4         -7.1130    5.9420    2.3060 hn        1 MOL      0.276797
     16 H5         -8.3350    6.8410   -0.1930 h1        1 MOL      0.076921
     17 H6         -9.5640    6.0730    1.6690 hc        1 MOL     -0.028597
     18 H7         -8.7190    4.4410    1.5210 hc        1 MOL     -0.028597
     19 N2         -6.1070    4.3780    0.1640 n         1 MOL     -0.411050
     20 C7         -5.1680    3.5020   -0.6240 c3        1 MOL      0.121544
     21 C8         -4.4100    2.4460    0.1940 c         1 MOL      0.416747
     22 O5         -3.6040    2.6440    1.0980 o         1 MOL     -0.550590
     23 C9         -4.3340    4.3070   -1.5750 c3        1 MOL     -0.611979
     24 H8         -5.9870    4.4590    1.1550 hn        1 MOL      0.275337
     25 H9         -5.9230    2.9710   -1.2070 h1        1 MOL      0.132402
     26 H10        -3.5780    4.8070   -0.9650 hc        1 MOL      0.181501
     27 H11        -3.8660    3.6080   -2.2660 hc        1 MOL      0.181501
     28 H12        -4.8230    5.1460   -2.0680 hc        1 MOL      0.181501
     29 N3         -4.5180    1.1420   -0.0310 n         1 MOL     -0.208129
     30 C10        -5.4840    0.3130   -0.8220 c3        1 MOL     -0.189129
     31 C11        -5.7710   -1.0510   -0.2250 c         1 MOL      0.578600
     32 O6         -5.0950   -1.3590    0.7180 o         1 MOL     -0.517408
     33 C12        -5.0190    0.1430   -2.3080 c3        1 MOL     -0.385944
     34 C13        -3.6600   -0.6310   -2.4460 c         1 MOL      0.690668
     35 O7         -3.0510   -1.0230   -1.4060 o         1 MOL     -0.672451
     36 O8         -3.2930   -1.0620   -3.5210 o         1 MOL     -0.672451
     37 H13        -3.8510    0.6490    0.5370 hn        1 MOL      0.236911
     38 H14        -6.4330    0.8340   -0.9470 h1        1 MOL      0.084087
     39 H15        -4.9010    1.0940   -2.8330 hc        1 MOL      0.132803
     40 H16        -5.6790   -0.5180   -2.8620 hc        1 MOL      0.132803
     41 N4         -6.7530   -1.8000   -0.7840 n         1 MOL     -0.444757
     42 C14        -7.2470   -3.0830   -0.2120 c3        1 MOL      0.036707
     43 C15        -7.0510   -4.2360   -1.2510 c         1 MOL      0.547713
     44 O9         -8.1100   -4.7000   -1.6480 o         1 MOL     -0.579632
     45 H17        -7.2280   -1.4530   -1.6090 hn        1 MOL      0.328338
     46 H18        -8.3140   -2.9530   -0.0290 h1        1 MOL      0.047048
     47 H19        -6.6520   -3.2720    0.6780 h1        1 MOL      0.047048
     48 N5         -5.9360   -4.5970   -1.7630 n         1 MOL     -0.497630
     49 C16        -4.5570   -4.2110   -1.2860 c3        1 MOL     -0.058264
     50 C17        -4.4300   -4.8350    0.1180 c         1 MOL      0.783930
     51 O10        -4.8310   -5.9400    0.3390 o         1 MOL     -0.615557
     52 C18        -3.5100   -4.7050   -2.2700 c3        1 MOL     -0.149860
     53 C19        -2.1610   -4.2560   -1.9410 c         1 MOL      0.441072
     54 N6         -1.2120   -4.5540   -2.7720 n         1 MOL     -0.503961
     55 O11        -1.9010   -3.6700   -0.9310 o         1 MOL     -0.636440
     56 H20        -5.8630   -5.3690   -2.4110 hn        1 MOL      0.310508
     57 H21        -4.4410   -3.1320   -1.3050 h1        1 MOL      0.190318
     58 H22        -3.7940   -4.2370   -3.2220 hc        1 MOL      0.072808
     59 H23        -3.5360   -5.7950   -2.3170 hc        1 MOL      0.072808
     60 H24        -1.4900   -4.9600   -3.6620 hn        1 MOL      0.292246
     61 H25        -0.3940   -4.0380   -2.5080 hn        1 MOL      0.292246
     62 N7         -4.0940   -4.1110    1.1500 n         1 MOL     -0.242417
     63 C20        -3.7900   -4.6700    2.4320 c3        1 MOL     -0.248569
     64 C21        -2.3960   -5.1690    2.7430 c         1 MOL      0.577003
     65 O12        -2.2440   -6.1010    3.5380 o         1 MOL     -0.580515
     66 H26        -3.7290   -3.1900    0.9400 hn        1 MOL      0.208964
     67 H27        -4.5180   -5.4560    2.6350 h1        1 MOL      0.090574
     68 H28        -3.9720   -3.8530    3.1300 h1        1 MOL      0.090574
     69 N8         -1.4770   -4.7410    1.9400 n         1 MOL     -0.335454
     70 C22        -0.0590   -5.0500    1.9400 c3        1 MOL     -0.050372
     71 C23         0.8020   -3.7900    1.6400 c         1 MOL      0.105552
     72 O13         0.5420   -2.9730    0.7700 o         1 MOL     -0.294160
     73 C24         0.4460   -6.1730    1.0130 c3        1 MOL      0.491436
     74 C25        -0.0420   -7.5390    1.3510 c3        1 MOL     -0.665985
     75 O14         0.0130   -5.9240   -0.3570 oh        1 MOL     -0.641467
     76 H29        -1.8540   -4.1220    1.2270 hn        1 MOL      0.298450
     77 H30         0.1890   -5.3940    2.9400 h1        1 MOL      0.058193
     78 H31         1.5300   -6.1600    1.0650 h1        1 MOL     -0.016280
     79 H32         0.4750   -5.2160   -0.8130 ho        1 MOL      0.417348
     80 H33        -1.1210   -7.5930    1.2450 hc        1 MOL      0.180038
     81 H34         0.3740   -8.1960    0.5840 hc        1 MOL      0.180038
     82 H35         0.2870   -7.8400    2.3420 hc        1 MOL      0.180038
     83 N9          1.8240   -3.6290    2.4790 n         1 MOL     -0.042883
     84 C26         2.8110   -2.4950    2.3760 c3        1 MOL     -0.024843
     85 C27         3.7170   -2.8670    1.1510 c         1 MOL      0.176242
     86 O15         4.6300   -3.6950    1.2930 o         1 MOL     -0.507256
     87 C28         3.5960   -2.2400    3.6820 c3        1 MOL      0.294050
     88 C29         4.6430   -1.0700    3.4610 c3        1 MOL      0.058786
     89 C30         2.6410   -1.7620    4.8420 c3        1 MOL     -0.336776
     90 C31         5.5000   -0.8570    4.6910 c3        1 MOL     -0.357911
     91 H36         2.0230   -4.4160    3.0860 hn        1 MOL      0.185380
     92 H37         2.3370   -1.5760    2.0450 h1        1 MOL     -0.054561
     93 H38         4.1170   -3.1480    3.9990 hc        1 MOL     -0.047769
     94 H39         4.1040   -0.1320    3.3710 hc        1 MOL      0.017864
     95 H40         5.2590   -1.3420    2.6030 hc        1 MOL      0.017864
     96 H41         1.7090   -2.3310    4.7840 hc        1 MOL      0.076292
     97 H42         3.1110   -1.9520    5.8070 hc        1 MOL      0.076292
     98 H43         2.4540   -0.7000    4.7100 hc        1 MOL      0.076292
     99 H44         5.9540   -1.7990    5.0070 hc        1 MOL      0.084922
    100 H45         6.3830   -0.2910    4.3810 hc        1 MOL      0.084922
    101 H46         4.8890   -0.3800    5.4580 hc        1 MOL      0.084922
    102 N10         3.3610   -2.2740   -0.0150 n         1 MOL      0.031435
    103 C32         4.0570   -2.6060   -1.2750 c3        1 MOL      0.014623
    104 C33         5.3250   -1.8810   -1.5730 c         1 MOL      0.529505
    105 O16         6.0970   -2.3280   -2.3940 o         1 MOL     -0.549980
    106 C34         3.0600   -2.3960   -2.4310 c3        1 MOL     -0.155247
    107 C35         1.6750   -2.9740   -2.2080 c         1 MOL      0.722128
    108 O17         1.5800   -4.2150   -2.0910 o         1 MOL     -0.697972
    109 O18         0.6850   -2.2060   -2.1440 o         1 MOL     -0.697972
    110 H47         2.5350   -1.6910   -0.0820 hn        1 MOL      0.186239
    111 H48         4.2340   -3.6810   -1.2680 h1        1 MOL      0.083996
    112 H49         3.4870   -2.8410   -3.3380 hc        1 MOL      0.019461
    113 H50         3.0070   -1.3280   -2.6110 hc        1 MOL      0.019461
    114 N11         5.6240   -0.8190   -0.8190 n         1 MOL     -0.324610
    115 C36         6.7380    0.1180   -1.1690 c3        1 MOL      0.039339
    116 C37         6.3960    1.5300   -0.7270 c         1 MOL      0.649360
    117 O19         6.0500    1.7100    0.4510 o         1 MOL     -0.555695
    118 C38         8.1070   -0.3460   -0.5380 c3        1 MOL     -0.253119
    119 C39         9.2060    0.6890   -0.7280 ca        1 MOL      0.084948
    120 C40         9.4640    1.6070    0.2800 ca        1 MOL     -0.147340
    121 C41        10.0280    0.7550   -1.8660 ca        1 MOL     -0.147340
    122 C42        10.3990    2.6490    0.0870 ca        1 MOL     -0.157889
    123 C43        10.9950    1.7750   -2.0040 ca        1 MOL     -0.157889
    124 C44        11.1550    2.7390   -1.0520 ca        1 MOL     -0.032635
    125 H51         4.8420   -0.4190   -0.3090 hn        1 MOL      0.106698
    126 H52         6.7640    0.0390   -2.2610 h1        1 MOL      0.069774
    127 H53         8.4950   -1.2150   -1.0740 hc        1 MOL      0.127360
    128 H54         8.0400   -0.5260    0.5340 hc        1 MOL      0.127360
    129 H55         8.8810    1.6570    1.1840 ha        1 MOL      0.125810
    130 H56        10.0050   -0.0470   -2.5830 ha        1 MOL      0.125810
    131 H57        10.4740    3.4160    0.8510 ha        1 MOL      0.106015
    132 H58        11.6130    1.7960   -2.8940 ha        1 MOL      0.106015
    133 H59        11.8850    3.5070   -1.2450 ha        1 MOL      0.085416
    134 N12         6.4720    2.5890   -1.6280 n         1 MOL     -0.185049
    135 C45         6.5660    3.9810   -1.2620 c3        1 MOL     -0.051505
    136 C46         5.4770    4.5340   -0.3690 c         1 MOL      0.441097
    137 O20         5.7070    5.5480    0.2140 o         1 MOL     -0.519456
    138 C47         6.6020    4.7330   -2.6260 c3        1 MOL      0.010612
    139 C48         7.4470    3.8120   -3.4500 c3        1 MOL      0.092648
    140 C49         6.8470    2.4540   -3.0470 c3        1 MOL     -0.243744
    141 H60         7.4850    4.2100   -0.7300 h1        1 MOL      0.090961
    142 H61         5.5880    4.7140   -3.0220 hc        1 MOL      0.029154
    143 H62         7.0060    5.7510   -2.6920 hc        1 MOL      0.029154
    144 H63         7.4060    4.0250   -4.5160 hc        1 MOL      0.009286
    145 H64         8.4710    3.9230   -3.0780 hc        1 MOL      0.009286
    146 H65         5.9040    2.3540   -3.5890 h1        1 MOL      0.098018
    147 H66         7.4590    1.5830   -3.2950 h1        1 MOL      0.098018
    148 N13         4.3030    3.8530   -0.2470 n         1 MOL     -0.305828
    149 C50         3.2580    4.1280    0.8000 c3        1 MOL     -0.186445
    150 C51         3.7700    4.0950    2.2470 c         1 MOL      0.548037
    151 O21         3.1480    4.6060    3.1420 o         1 MOL     -0.534683
    152 C52         2.1150    3.0740    0.5710 c3        1 MOL     -0.032452
    153 C53         2.5040    1.6960    1.0340 c3        1 MOL     -0.137634
    154 C54         1.4310    0.7190    0.5480 c         1 MOL      0.676126
    155 O22         1.4190    0.3230   -0.6490 o         1 MOL     -0.705441
    156 O23         0.6150    0.2050    1.3520 o         1 MOL     -0.705441
    157 H67         4.2830    2.9690   -0.7360 hn        1 MOL      0.206541
    158 H68         2.8150    5.0920    0.5430 h1        1 MOL      0.142522
    159 H69         1.8900    3.0830   -0.5000 hc        1 MOL      0.051347
    160 H70         1.2040    3.3720    1.0980 hc        1 MOL      0.051347
    161 H71         2.5860    1.6180    2.1250 hc        1 MOL      0.049587
    162 H72         3.4640    1.4490    0.5630 hc        1 MOL      0.049587
    163 N14         5.0010    3.5210    2.4670 n         1 MOL     -0.211128
    164 C55         5.9160    3.7250    3.6240 c3        1 MOL     -0.055505
    165 H73         6.3640    2.7710    3.9050 h1        1 MOL      0.050318
    166 H74         6.7030    4.4270    3.3470 h1        1 MOL      0.050318
    167 H75         5.3530    4.1240    4.4670 h1        1 MOL      0.050318
    168 H76         5.3720    3.0120    1.6680 hn        1 MOL      0.194745
    169 Ca1        -0.7510   -1.0320   -0.5270 Ca        1 MOL      1.639662
    170 O24        -1.3430    1.6210   -0.6890 oh        1 MOL     -0.787129
    171 H77        -1.8380    2.3060   -0.2470 ho        1 MOL      0.382387
    172 H78        -1.0180    2.0250   -1.4910 ho        1 MOL      0.382387
    173 O25        -2.5100   -1.3550    1.5390 oh        1 MOL     -0.787129
    174 H79        -3.4540   -1.3420    1.4350 ho        1 MOL      0.382387
    175 H80        -2.3770   -1.1880    2.4750 ho        1 MOL      0.382387
    176 O26        -0.3330   -0.0050   -3.2150 oh        1 MOL     -0.787129
    177 H81        -0.7330   -0.8060   -3.5720 ho        1 MOL      0.382387
    178 H82         0.6040   -0.2040   -3.1940 ho        1 MOL      0.382387
@<TRIPOS>BOND
     1    1    2 1   
     2    1    4 1   
     3    1    5 1   
     4    1    6 1   
     5    2    3 2   
     6    2    7 1   
     7    7    8 1   
     8    7   15 1   
     9    8    9 1   
    10    8   11 1   
    11    8   16 1   
    12    9   10 2   
    13    9   19 1   
    14   11   12 1   
    15   11   17 1   
    16   11   18 1   
    17   12   13 1   
    18   12   14 1   
    19   19   20 1   
    20   19   24 1   
    21   20   21 1   
    22   20   23 1   
    23   20   25 1   
    24   21   22 2   
    25   21   29 1   
    26   23   26 1   
    27   23   27 1   
    28   23   28 1   
    29   29   30 1   
    30   29   37 1   
    31   30   31 1   
    32   30   33 1   
    33   30   38 1   
    34   31   32 2   
    35   31   41 1   
    36   33   34 1   
    37   33   39 1   
    38   33   40 1   
    39   34   35 1   
    40   34   36 1   
    41   41   42 1   
    42   41   45 1   
    43   42   43 1   
    44   42   46 1   
    45   42   47 1   
    46   43   44 2   
    47   43   48 1   
    48   48   49 1   
    49   48   56 1   
    50   49   50 1   
    51   49   52 1   
    52   49   57 1   
    53   50   51 2   
    54   50   62 1   
    55   52   53 1   
    56   52   58 1   
    57   52   59 1   
    58   53   54 1   
    59   53   55 2   
    60   54   60 1   
    61   54   61 1   
    62   62   63 1   
    63   62   66 1   
    64   63   64 1   
    65   63   67 1   
    66   63   68 1   
    67   64   65 2   
    68   64   69 1   
    69   69   70 1   
    70   69   76 1   
    71   70   71 1   
    72   70   73 1   
    73   70   77 1   
    74   71   72 2   
    75   71   83 1   
    76   73   74 1   
    77   73   75 1   
    78   73   78 1   
    79   74   80 1   
    80   74   81 1   
    81   74   82 1   
    82   75   79 1   
    83   83   84 1   
    84   83   91 1   
    85   84   85 1   
    86   84   87 1   
    87   84   92 1   
    88   85   86 2   
    89   85  102 1   
    90   87   88 1   
    91   87   89 1   
    92   87   93 1   
    93   88   90 1   
    94   88   94 1   
    95   88   95 1   
    96   89   96 1   
    97   89   97 1   
    98   89   98 1   
    99   90   99 1   
   100   90  100 1   
   101   90  101 1   
   102  102  103 1   
   103  102  110 1   
   104  103  104 1   
   105  103  106 1   
   106  103  111 1   
   107  104  105 2   
   108  104  114 1   
   109  106  107 1   
   110  106  112 1   
   111  106  113 1   
   112  107  108 1   
   113  107  109 1   
   114  114  115 1   
   115  114  125 1   
   116  115  116 1   
   117  115  118 1   
   118  115  126 1   
   119  116  117 2   
   120  116  134 1   
   121  118  119 1   
   122  118  127 1   
   123  118  128 1   
   124  119  120 ar  
   125  119  121 ar  
   126  120  122 ar  
   127  120  129 1   
   128  121  123 ar  
   129  121  130 1   
   130  122  124 ar  
   131  122  131 1   
   132  123  124 ar  
   133  123  132 1   
   134  124  133 1   
   135  134  135 1   
   136  134  140 1   
   137  135  136 1   
   138  135  138 1   
   139  135  141 1   
   140  136  137 2   
   141  136  148 1   
   142  138  139 1   
   143  138  142 1   
   144  138  143 1   
   145  139  140 1   
   146  139  144 1   
   147  139  145 1   
   148  140  146 1   
   149  140  147 1   
   150  148  149 1   
   151  148  157 1   
   152  149  150 1   
   153  149  152 1   
   154  149  158 1   
   155  150  151 2   
   156  150  163 1   
   157  152  153 1   
   158  152  159 1   
   159  152  160 1   
   160  153  154 1   
   161  153  161 1   
   162  153  162 1   
   163  154  155 1   
   164  154  156 1   
   165  163  164 1   
   166  163  168 1   
   167  164  165 1   
   168  164  166 1   
   169  164  167 1   
   170  170  171 1   
   171  170  172 1   
   172  173  174 1   
   173  173  175 1   
   174  176  177 1   
   175  176  178 1   
@<TRIPOS>SUBSTRUCTURE
     1 MOL         1 TEMP              0 ****  ****    0 ROOT
