@<TRIPOS>MOLECULE
MOL
  178   175     1     0     0
SMALL
resp


@<TRIPOS>ATOM
      1 C1          3.2490   -2.6250    5.0960 c3        1 MOL     -0.373359
      2 C2          4.5760   -1.9520    4.7180 c         1 MOL      0.730691
      3 O1          5.2870   -1.4620    5.5400 o         1 MOL     -0.615209
      4 H1          3.3470   -3.7050    4.9860 hc        1 MOL      0.091306
      5 H2          3.0010   -2.3860    6.1300 hc        1 MOL      0.091306
      6 H3          2.4580   -2.2640    4.4380 hc        1 MOL      0.091306
      7 N1          4.8850   -1.9950    3.4340 n         1 MOL     -0.508618
      8 C3          6.0790   -1.3660    2.8520 c3        1 MOL      0.062453
      9 C4          5.8700   -0.9640    1.4000 c         1 MOL      0.525340
     10 O2          4.9460   -1.4580    0.7890 o         1 MOL     -0.468688
     11 C5          7.2780   -2.1870    3.0470 c3        1 MOL     -0.065672
     12 C6          7.2390   -3.4360    2.2130 c         1 MOL      0.657626
     13 O3          6.4240   -4.3340    2.5510 o         1 MOL     -0.695121
     14 O4          8.0090   -3.4640    1.2180 o         1 MOL     -0.695121
     15 H4          4.1680   -2.2530    2.7740 hn        1 MOL      0.270023
     16 H5          6.2510   -0.4630    3.4540 h1        1 MOL      0.025231
     17 H6          7.3270   -2.5710    4.0620 hc        1 MOL      0.007999
     18 H7          8.1810   -1.5940    2.9140 hc        1 MOL      0.007999
     19 N2          6.7170   -0.0760    0.8930 n         1 MOL     -0.422989
     20 C7          6.7380    0.3260   -0.4900 c3        1 MOL     -0.008234
     21 C8          5.4730    1.1140   -0.8420 c         1 MOL      0.566071
     22 O5          4.8100    1.7490    0.0100 o         1 MOL     -0.540558
     23 C9          8.0300    1.2300   -0.6550 c3        1 MOL     -0.249668
     24 H8          7.3000    0.4450    1.5210 hn        1 MOL      0.283882
     25 H9          6.7620   -0.5850   -1.0880 h1        1 MOL      0.142965
     26 H10         8.9480    0.6340   -0.6540 hc        1 MOL      0.072479
     27 H11         7.9530    1.7280   -1.6170 hc        1 MOL      0.072479
     28 H12         8.1860    2.0520    0.0480 hc        1 MOL      0.072479
     29 N3          5.2110    1.1230   -2.1810 n         1 MOL     -0.633718
     30 C10         3.8980    1.5700   -2.7070 c3        1 MOL      0.028410
     31 C11         4.0740    3.0130   -3.2300 c         1 MOL      0.574187
     32 O6          3.7960    3.3880   -4.3690 o         1 MOL     -0.515285
     33 C12         3.5370    0.5290   -3.8340 c3        1 MOL     -0.420256
     34 C13         3.6910   -0.9710   -3.4120 c         1 MOL      0.797144
     35 O7          3.3650   -1.3770   -2.2690 o         1 MOL     -0.719443
     36 O8          4.2730   -1.6650   -4.2410 o         1 MOL     -0.719443
     37 H13         5.8060    0.6530   -2.8520 hn        1 MOL      0.392556
     38 H14         3.1480    1.6150   -1.9150 h1        1 MOL      0.136204
     39 H15         4.1150    0.7290   -4.7270 hc        1 MOL      0.129092
     40 H16         2.4630    0.6220   -3.9870 hc        1 MOL      0.129092
     41 N4          4.6040    3.9040   -2.3490 n         1 MOL     -0.307194
     42 C14         4.7440    5.3740   -2.5940 c3        1 MOL     -0.254565
     43 C15         3.3760    6.0970   -2.7910 c         1 MOL      0.619780
     44 O9          3.2780    7.2350   -3.2650 o         1 MOL     -0.559072
     45 H17         4.9570    3.5800   -1.4630 hn        1 MOL      0.263630
     46 H18         5.4280    5.5040   -3.4310 h1        1 MOL      0.120722
     47 H19         5.1900    5.8290   -1.7080 h1        1 MOL      0.120722
     48 N5          2.2710    5.4530   -2.3470 n         1 MOL     -0.572039
     49 C16         0.9050    5.9250   -2.7520 c3        1 MOL      0.269660
     50 C17         0.1530    6.5430   -1.5120 c         1 MOL      0.444678
     51 O10        -0.7680    7.3150   -1.7020 o         1 MOL     -0.494065
     52 C18         0.1390    4.6060   -3.0980 c3        1 MOL     -0.391028
     53 C19         0.4680    3.9820   -4.4150 c         1 MOL      0.877523
     54 N6          0.2110    4.7140   -5.5020 n         1 MOL     -0.937528
     55 O11         0.7530    2.8190   -4.4740 o         1 MOL     -0.580386
     56 H20         2.4380    4.5450   -1.9390 hn        1 MOL      0.230883
     57 H21         0.7600    6.6230   -3.5750 h1        1 MOL      0.025324
     58 H22        -0.9070    4.9140   -3.1240 hc        1 MOL      0.107096
     59 H23         0.1720    3.8850   -2.2850 hc        1 MOL      0.107096
     60 H24         0.1910    5.7150   -5.3570 hn        1 MOL      0.395358
     61 H25         0.2180    4.2820   -6.4200 hn        1 MOL      0.395358
     62 N7          0.5440    6.1010   -0.2640 n         1 MOL     -0.343250
     63 C20         0.0040    6.6600    0.9350 c3        1 MOL     -0.247364
     64 C21        -1.4170    6.1940    1.1710 c         1 MOL      0.658877
     65 O12        -2.0670    5.7360    0.2570 o         1 MOL     -0.456619
     66 H26         1.2710    5.4110   -0.1710 hn        1 MOL      0.317985
     67 H27        -0.0040    7.7520    0.8770 h1        1 MOL      0.110487
     68 H28         0.5810    6.3420    1.8080 h1        1 MOL      0.110487
     69 N8         -1.8510    6.1160    2.4480 n         1 MOL     -0.465012
     70 C22        -3.2830    5.8420    2.7610 c3        1 MOL     -0.306364
     71 C23        -3.6160    4.3530    3.1610 c         1 MOL      0.617664
     72 O13        -4.8010    4.0020    3.0110 o         1 MOL     -0.579699
     73 C24        -3.8280    6.7940    3.8230 c3        1 MOL      0.627750
     74 C25        -3.2550    6.5160    5.2190 c3        1 MOL     -0.517730
     75 O14        -3.5580    8.1670    3.5650 oh        1 MOL     -0.663866
     76 H29        -1.3360    6.6430    3.1380 hn        1 MOL      0.245119
     77 H30        -3.8500    6.0730    1.8520 h1        1 MOL      0.144385
     78 H31        -4.9160    6.7260    3.8420 h1        1 MOL      0.007066
     79 H32        -2.6230    8.3480    3.6990 ho        1 MOL      0.382988
     80 H33        -2.1720    6.3600    5.2180 hc        1 MOL      0.115959
     81 H34        -3.4910    7.3710    5.8570 hc        1 MOL      0.115959
     82 H35        -3.7280    5.6370    5.6460 hc        1 MOL      0.115959
     83 N9         -2.6360    3.5510    3.6150 n         1 MOL     -0.400818
     84 C26        -2.8760    2.0780    3.7720 c3        1 MOL     -0.033585
     85 C27        -1.8010    1.4020    2.9010 c         1 MOL      0.488154
     86 O15        -0.5920    1.8460    2.8590 o         1 MOL     -0.490797
     87 C28        -2.9050    1.5910    5.2550 c3        1 MOL      0.262190
     88 C29        -3.9490    2.3350    6.1160 c3        1 MOL     -0.033347
     89 C30        -3.0140    0.0470    5.3860 c3        1 MOL     -0.254197
     90 C31        -5.3820    2.0710    5.7550 c3        1 MOL      0.011331
     91 H36        -1.7390    3.9690    3.7960 hn        1 MOL      0.255793
     92 H37        -3.8670    1.7840    3.4160 h1        1 MOL      0.110607
     93 H38        -1.9510    1.9380    5.6470 hc        1 MOL     -0.042194
     94 H39        -3.8350    3.4100    6.0270 hc        1 MOL     -0.006493
     95 H40        -3.7260    2.0140    7.1340 hc        1 MOL     -0.006493
     96 H41        -2.0150   -0.3940    5.3510 hc        1 MOL      0.059986
     97 H42        -3.4120   -0.1700    6.3730 hc        1 MOL      0.059986
     98 H43        -3.6690   -0.3590    4.6110 hc        1 MOL      0.059986
     99 H44        -5.5940    1.0340    5.9990 hc        1 MOL     -0.011440
    100 H45        -6.0860    2.6840    6.3280 hc        1 MOL     -0.011440
    101 H46        -5.5320    2.1170    4.6800 hc        1 MOL     -0.011440
    102 N10        -2.2360    0.3850    2.1220 n         1 MOL     -0.514129
    103 C32        -1.3850   -0.3390    1.1350 c3        1 MOL      0.240895
    104 C33        -2.1820   -0.8460   -0.1000 c         1 MOL      0.471880
    105 O16        -1.7600   -1.7880   -0.7990 o         1 MOL     -0.414092
    106 C34        -0.6210   -1.4730    1.7780 c3        1 MOL     -0.142648
    107 C35         0.6650   -1.9560    1.1770 c         1 MOL      0.714296
    108 O17         1.3460   -1.2000    0.4290 o         1 MOL     -0.741408
    109 O18         1.1930   -3.0850    1.3650 o         1 MOL     -0.741408
    110 H47        -3.2420    0.3110    2.1000 hn        1 MOL      0.277653
    111 H48        -0.6810    0.4190    0.7950 h1        1 MOL      0.057547
    112 H49        -1.2490   -2.3650    1.7480 hc        1 MOL      0.018124
    113 H50        -0.4390   -1.1860    2.8150 hc        1 MOL      0.018124
    114 N11        -3.3230   -0.2130   -0.3790 n         1 MOL     -0.591104
    115 C36        -4.1780   -0.6540   -1.5030 c3        1 MOL      0.333336
    116 C37        -4.8370   -2.0050   -1.1250 c         1 MOL      0.402997
    117 O19        -5.4090   -2.1310    0.0080 o         1 MOL     -0.575177
    118 C38        -5.3280    0.3810   -1.6750 c3        1 MOL     -0.256413
    119 C39        -6.3070    0.0260   -2.7990 ca        1 MOL      0.128306
    120 C40        -7.4210   -0.8780   -2.6280 ca        1 MOL     -0.189365
    121 C41        -6.1830    0.6420   -4.0640 ca        1 MOL     -0.189365
    122 C42        -8.2420   -1.2220   -3.6710 ca        1 MOL     -0.067281
    123 C43        -7.1470    0.3720   -4.9960 ca        1 MOL     -0.067281
    124 C44        -8.1320   -0.5700   -4.9160 ca        1 MOL     -0.173146
    125 H51        -3.7580    0.4030    0.3080 hn        1 MOL      0.286263
    126 H52        -3.6330   -0.7000   -2.4470 h1        1 MOL      0.025596
    127 H53        -4.9980    1.4250   -1.6840 hc        1 MOL      0.092327
    128 H54        -5.9330    0.2630   -0.7800 hc        1 MOL      0.092327
    129 H55        -7.4950   -1.4260   -1.7060 ha        1 MOL      0.127305
    130 H56        -5.4260    1.3850   -4.2510 ha        1 MOL      0.127305
    131 H57        -8.9060   -2.0730   -3.5850 ha        1 MOL      0.086298
    132 H58        -6.9540    0.7660   -5.9900 ha        1 MOL      0.086298
    133 H59        -8.8100   -0.8810   -5.6940 ha        1 MOL      0.122442
    134 N12        -4.8170   -3.0770   -1.9880 n         1 MOL      0.023656
    135 C45        -5.4660   -4.3450   -1.7840 c3        1 MOL     -0.252054
    136 C46        -4.6890   -5.3700   -0.9850 c         1 MOL      0.461640
    137 O20        -5.2340   -6.2970   -0.3970 o         1 MOL     -0.538662
    138 C47        -5.8770   -4.8220   -3.1860 c3        1 MOL      0.029168
    139 C48        -4.6920   -4.2890   -4.0460 c3        1 MOL     -0.046113
    140 C49        -4.3210   -3.0070   -3.3800 c3        1 MOL     -0.060251
    141 H60        -6.3950   -4.0980   -1.2720 h1        1 MOL      0.119778
    142 H61        -5.9710   -5.9070   -3.2860 hc        1 MOL      0.029473
    143 H62        -6.7820   -4.3850   -3.5980 hc        1 MOL      0.029473
    144 H63        -3.8740   -5.0070   -4.1260 hc        1 MOL      0.033209
    145 H64        -4.9410   -4.0650   -5.0830 hc        1 MOL      0.033209
    146 H65        -3.2540   -2.7940   -3.3050 h1        1 MOL      0.049844
    147 H66        -4.6680   -2.1030   -3.8890 h1        1 MOL      0.049844
    148 N13        -3.4450   -5.1550   -0.7170 n         1 MOL     -0.118106
    149 C50        -2.5370   -5.9960    0.1720 c3        1 MOL     -0.396983
    150 C51        -3.1540   -6.1590    1.5740 c         1 MOL      0.661161
    151 O21        -3.1390   -7.2780    2.1240 o         1 MOL     -0.546696
    152 C52        -1.0770   -5.4650    0.1110 c3        1 MOL      0.072526
    153 C53        -0.3760   -5.6230   -1.2570 c3        1 MOL      0.131551
    154 C54         0.9080   -4.8350   -1.4040 c         1 MOL      0.626733
    155 O22         0.8800   -3.7360   -1.9810 o         1 MOL     -0.750592
    156 O23         1.9060   -5.2750   -0.8340 o         1 MOL     -0.750592
    157 H67        -3.0860   -4.2380   -0.9280 hn        1 MOL      0.148668
    158 H68        -2.4150   -7.0040   -0.2330 h1        1 MOL      0.162941
    159 H69        -0.4830   -5.9550    0.8730 hc        1 MOL      0.024827
    160 H70        -1.0780   -4.4060    0.3780 hc        1 MOL      0.024827
    161 H71        -0.9980   -5.3160   -2.0940 hc        1 MOL     -0.055565
    162 H72        -0.1890   -6.6840   -1.4450 hc        1 MOL     -0.055565
    163 N14        -3.7650   -5.0790    2.1820 n         1 MOL     -0.353101
    164 C55        -4.1820   -5.0430    3.6280 c3        1 MOL     -0.326005
    165 H73        -4.5730   -4.0550    3.8680 h1        1 MOL      0.127813
    166 H74        -4.9560   -5.7900    3.8020 h1        1 MOL      0.127813
    167 H75        -3.3210   -5.2560    4.2600 h1        1 MOL      0.127813
    168 H76        -3.6060   -4.1630    1.7760 hn        1 MOL      0.301484
    169 Ca1         3.0480   -3.0250   -0.3930 Ca        1 MOL      1.740803
    170 O24         5.5360   -3.9610   -0.6400 oh        1 MOL     -0.855895
    171 H77         6.0800   -4.1120    0.1250 ho        1 MOL      0.407958
    172 H78         6.0690   -4.2620   -1.3780 ho        1 MOL      0.407958
    173 O25         3.6060   -3.9450   -3.1340 oh        1 MOL     -0.855895
    174 H79         2.7260   -4.1040   -3.4680 ho        1 MOL      0.407958
    175 H80         3.8540   -3.1050   -3.5170 ho        1 MOL      0.407958
    176 O26         3.7960   -4.4700    1.8980 oh        1 MOL     -0.855895
    177 H81         4.7300   -4.5840    2.0820 ho        1 MOL      0.407958
    178 H82         3.3520   -4.8900    2.6370 ho        1 MOL      0.407958
@<TRIPOS>BOND
     1    1    2 1   
     2    1    4 1   
     3    1    5 1   
     4    1    6 1   
     5    2    3 2   
     6    2    7 1   
     7    7    8 1   
     8    7   15 1   
     9    8    9 1   
    10    8   11 1   
    11    8   16 1   
    12    9   10 2   
    13    9   19 1   
    14   11   12 1   
    15   11   17 1   
    16   11   18 1   
    17   12   13 1   
    18   12   14 1   
    19   19   20 1   
    20   19   24 1   
    21   20   21 1   
    22   20   23 1   
    23   20   25 1   
    24   21   22 2   
    25   21   29 1   
    26   23   26 1   
    27   23   27 1   
    28   23   28 1   
    29   29   30 1   
    30   29   37 1   
    31   30   31 1   
    32   30   33 1   
    33   30   38 1   
    34   31   32 2   
    35   31   41 1   
    36   33   34 1   
    37   33   39 1   
    38   33   40 1   
    39   34   35 1   
    40   34   36 1   
    41   41   42 1   
    42   41   45 1   
    43   42   43 1   
    44   42   46 1   
    45   42   47 1   
    46   43   44 2   
    47   43   48 1   
    48   48   49 1   
    49   48   56 1   
    50   49   50 1   
    51   49   52 1   
    52   49   57 1   
    53   50   51 2   
    54   50   62 1   
    55   52   53 1   
    56   52   58 1   
    57   52   59 1   
    58   53   54 1   
    59   53   55 2   
    60   54   60 1   
    61   54   61 1   
    62   62   63 1   
    63   62   66 1   
    64   63   64 1   
    65   63   67 1   
    66   63   68 1   
    67   64   65 2   
    68   64   69 1   
    69   69   70 1   
    70   69   76 1   
    71   70   71 1   
    72   70   73 1   
    73   70   77 1   
    74   71   72 2   
    75   71   83 1   
    76   73   74 1   
    77   73   75 1   
    78   73   78 1   
    79   74   80 1   
    80   74   81 1   
    81   74   82 1   
    82   75   79 1   
    83   83   84 1   
    84   83   91 1   
    85   84   85 1   
    86   84   87 1   
    87   84   92 1   
    88   85   86 2   
    89   85  102 1   
    90   87   88 1   
    91   87   89 1   
    92   87   93 1   
    93   88   90 1   
    94   88   94 1   
    95   88   95 1   
    96   89   96 1   
    97   89   97 1   
    98   89   98 1   
    99   90   99 1   
   100   90  100 1   
   101   90  101 1   
   102  102  103 1   
   103  102  110 1   
   104  103  104 1   
   105  103  106 1   
   106  103  111 1   
   107  104  105 2   
   108  104  114 1   
   109  106  107 1   
   110  106  112 1   
   111  106  113 1   
   112  107  108 1   
   113  107  109 1   
   114  114  115 1   
   115  114  125 1   
   116  115  116 1   
   117  115  118 1   
   118  115  126 1   
   119  116  117 2   
   120  116  134 1   
   121  118  119 1   
   122  118  127 1   
   123  118  128 1   
   124  119  120 ar  
   125  119  121 ar  
   126  120  122 ar  
   127  120  129 1   
   128  121  123 ar  
   129  121  130 1   
   130  122  124 ar  
   131  122  131 1   
   132  123  124 ar  
   133  123  132 1   
   134  124  133 1   
   135  134  135 1   
   136  134  140 1   
   137  135  136 1   
   138  135  138 1   
   139  135  141 1   
   140  136  137 2   
   141  136  148 1   
   142  138  139 1   
   143  138  142 1   
   144  138  143 1   
   145  139  140 1   
   146  139  144 1   
   147  139  145 1   
   148  140  146 1   
   149  140  147 1   
   150  148  149 1   
   151  148  157 1   
   152  149  150 1   
   153  149  152 1   
   154  149  158 1   
   155  150  151 2   
   156  150  163 1   
   157  152  153 1   
   158  152  159 1   
   159  152  160 1   
   160  153  154 1   
   161  153  161 1   
   162  153  162 1   
   163  154  155 1   
   164  154  156 1   
   165  163  164 1   
   166  163  168 1   
   167  164  165 1   
   168  164  166 1   
   169  164  167 1   
   170  170  171 1   
   171  170  172 1   
   172  173  174 1   
   173  173  175 1   
   174  176  177 1   
   175  176  178 1   
@<TRIPOS>SUBSTRUCTURE
     1 MOL         1 TEMP              0 ****  ****    0 ROOT
