@<TRIPOS>MOLECULE
MOL
  192   187     1     0     0
SMALL
resp


@<TRIPOS>ATOM
      1 C1          5.2650    2.6890    5.5520 c3        1 MOL     -0.281398
      2 C2          5.1910    2.3260    4.0500 c         1 MOL      0.692051
      3 O1          4.7610    3.1230    3.2020 o         1 MOL     -0.554565
      4 H1          5.7000    1.8570    6.1060 hc        1 MOL      0.075413
      5 H2          5.8850    3.5750    5.6820 hc        1 MOL      0.075413
      6 H3          4.2610    2.8900    5.9280 hc        1 MOL      0.075413
      7 N1          5.3210    0.9940    3.7660 n         1 MOL     -0.716855
      8 C3          5.0320    0.4280    2.4410 c3        1 MOL      0.412897
      9 C4          3.5260    0.2640    2.0240 c         1 MOL     -0.045614
     10 O2          3.3040   -0.1280    0.9040 o         1 MOL      0.012012
     11 C5          5.8030   -0.9300    2.1970 c3        1 MOL     -0.282213
     12 C6          5.7010   -1.7700    3.4240 c         1 MOL      0.755068
     13 O3          5.0130   -2.8350    3.4630 o         1 MOL     -0.730241
     14 O4          6.2720   -1.3870    4.4570 o         1 MOL     -0.730241
     15 H4          5.7140    0.3770    4.4470 hn        1 MOL      0.401244
     16 H5          5.3630    1.1580    1.7140 h1        1 MOL     -0.000236
     17 H6          6.8540   -0.7590    1.9690 hc        1 MOL      0.068930
     18 H7          5.3990   -1.4840    1.3560 hc        1 MOL      0.068930
     19 N2          2.5970    0.6550    2.9630 n         1 MOL     -0.241665
     20 C7          1.2010    0.2400    2.8600 c3        1 MOL      0.017562
     21 C8          0.2820    1.4550    2.8290 c         1 MOL      0.598676
     22 O5          0.4750    2.3040    3.6810 o         1 MOL     -0.543265
     23 C9          0.8290   -0.7150    3.9600 c3        1 MOL     -0.160803
     24 C10         1.5200   -2.0690    3.8460 c3        1 MOL      0.070052
     25 C11         1.1590   -3.1230    4.8750 c3        1 MOL     -0.031724
     26 C12         1.6330   -4.4680    4.4540 c3        1 MOL     -0.043844
     27 N3          3.0700   -4.6970    4.5950 n4        1 MOL     -0.232756
     28 H8          2.9720    0.7530    3.9010 hn        1 MOL      0.281949
     29 H9          1.1320   -0.2980    1.9100 h1        1 MOL      0.004005
     30 H10        -0.2360   -0.9080    3.8730 hc        1 MOL      0.070544
     31 H11         1.0150   -0.2640    4.9310 hc        1 MOL      0.070544
     32 H12         2.5930   -1.9520    3.7170 hc        1 MOL      0.014454
     33 H13         1.3760   -2.5190    2.8530 hc        1 MOL      0.014454
     34 H14         0.1000   -3.1120    5.1290 hc        1 MOL      0.034457
     35 H15         1.6590   -2.7760    5.7860 hc        1 MOL      0.034457
     36 H16         1.4120   -4.5220    3.3840 hx        1 MOL      0.095572
     37 H17         1.1490   -5.2650    5.0300 hx        1 MOL      0.095572
     38 H18         3.3520   -4.5610    5.5570 hn        1 MOL      0.277501
     39 H19         3.4190   -5.5680    4.2420 hn        1 MOL      0.277501
     40 H20         3.6080   -3.9520    4.1830 hn        1 MOL      0.277501
     41 N4         -0.7250    1.5990    1.9630 n         1 MOL     -0.480273
     42 C13        -1.0900    0.6300    0.8850 c3        1 MOL      0.111454
     43 C14        -1.3660   -0.7670    1.3490 c         1 MOL      0.283084
     44 O6         -0.6620   -1.7290    1.1750 o         1 MOL     -0.367871
     45 C15        -0.1490    0.7210   -0.3470 c3        1 MOL      0.024267
     46 C16        -0.1780    2.1120   -0.9530 c         1 MOL      0.522116
     47 O7         -0.7250    3.1820   -0.4490 o         1 MOL     -0.729299
     48 O8          0.5020    2.2480   -1.9810 o         1 MOL     -0.729299
     49 H21        -1.2330    2.4710    1.9610 hn        1 MOL      0.296200
     50 H22        -2.0470    0.9760    0.4960 h1        1 MOL      0.055530
     51 H23        -0.4760   -0.0490   -1.0420 hc        1 MOL      0.070053
     52 H24         0.8510    0.4810    0.0260 hc        1 MOL      0.070053
     53 N5         -2.4140   -0.9790    2.1390 n         1 MOL     -0.345531
     54 C17        -3.4570   -0.0480    2.5090 c3        1 MOL      0.126972
     55 C18        -4.6870   -0.6720    3.1300 c         1 MOL      0.647984
     56 O9         -4.6550   -1.9110    3.3730 o         1 MOL     -0.576917
     57 H25        -2.4170   -1.9170    2.5320 hn        1 MOL      0.245639
     58 H26        -3.8130    0.4730    1.6140 h1        1 MOL      0.025205
     59 H27        -3.0710    0.6590    3.2470 h1        1 MOL      0.025205
     60 N6         -5.7690   -0.0110    3.5930 n         1 MOL     -0.627097
     61 C19        -6.1020    1.4150    3.1530 c3        1 MOL      0.118378
     62 C20        -7.1130    1.4840    2.0530 c         1 MOL      0.443281
     63 O10        -7.9150    0.5600    1.9180 o         1 MOL     -0.443610
     64 C21        -6.5200    2.1720    4.4110 c3        1 MOL     -0.203687
     65 C22        -7.7830    1.6570    5.1230 c         1 MOL      0.773029
     66 O11        -7.7720    0.8130    6.0140 o         1 MOL     -0.662976
     67 O12        -8.8370    2.2000    4.8000 o         1 MOL     -0.662976
     68 H28        -6.4610   -0.5270    4.1160 hn        1 MOL      0.372114
     69 H29        -5.2440    1.8590    2.6500 h1        1 MOL     -0.022807
     70 H30        -6.6600    3.2140    4.1290 hc        1 MOL      0.026168
     71 H31        -5.7380    2.1840    5.1730 hc        1 MOL      0.026168
     72 N7         -7.0360    2.5700    1.2510 n         1 MOL     -0.284781
     73 C23        -7.8700    2.8480    0.0830 c3        1 MOL     -0.303188
     74 C24        -7.6350    1.9190   -1.0580 c         1 MOL      0.604271
     75 O13        -8.5100    1.3950   -1.6850 o         1 MOL     -0.521156
     76 H32        -6.3030    3.2000    1.5610 hn        1 MOL      0.262367
     77 H33        -7.8120    3.9080   -0.1900 h1        1 MOL      0.149692
     78 H34        -8.8890    2.6650    0.4380 h1        1 MOL      0.149692
     79 N8         -6.3610    1.5310   -1.1610 n         1 MOL     -0.313980
     80 C25        -5.8770    0.6630   -2.2870 c3        1 MOL     -0.039550
     81 C26        -4.8880   -0.4320   -1.6210 c         1 MOL      0.479387
     82 O14        -3.9040   -0.1220   -1.0170 o         1 MOL     -0.470119
     83 C27        -5.2540    1.4900   -3.3930 c3        1 MOL      0.237593
     84 C28        -4.2950    2.6530   -3.0840 c3        1 MOL     -0.388501
     85 O15        -6.3360    2.0450   -4.0990 oh        1 MOL     -0.596549
     86 H35        -5.7040    1.9470   -0.5150 hn        1 MOL      0.206133
     87 H36        -6.7060    0.1330   -2.7480 h1        1 MOL      0.113588
     88 H37        -4.8920    0.8190   -4.1660 h1        1 MOL      0.015972
     89 H38        -6.0890    2.0530   -5.0200 ho        1 MOL      0.397100
     90 H39        -3.3560    2.3790   -2.6110 hc        1 MOL      0.101098
     91 H40        -4.1180    3.2120   -4.0050 hc        1 MOL      0.101098
     92 H41        -4.8250    3.4090   -2.4970 hc        1 MOL      0.101098
     93 N9         -5.0820   -1.6990   -1.9630 n         1 MOL     -0.281553
     94 C29        -4.4890   -2.8490   -1.2000 c3        1 MOL     -0.535962
     95 C30        -3.1820   -3.4530   -1.9020 c         1 MOL      0.541120
     96 O16        -2.6110   -4.3630   -1.4190 o         1 MOL     -0.488972
     97 C31        -5.4130   -3.9780   -0.6620 c3        1 MOL      0.463172
     98 C32        -5.9370   -4.7930   -1.8650 c3        1 MOL     -0.158925
     99 C33        -6.5150   -3.2130    0.0320 c3        1 MOL     -0.343917
    100 C34        -6.4970   -6.1570   -1.3670 c3        1 MOL     -0.004683
    101 H42        -5.8070   -1.9550   -2.6210 hn        1 MOL      0.252775
    102 H43        -4.0830   -2.4900   -0.2610 h1        1 MOL      0.233562
    103 H44        -4.8970   -4.5430    0.1140 hc        1 MOL     -0.021148
    104 H45        -5.1020   -5.0240   -2.5290 hc        1 MOL      0.037225
    105 H46        -6.8170   -4.2880   -2.2660 hc        1 MOL      0.037225
    106 H47        -7.2060   -3.8950    0.5280 hc        1 MOL      0.087209
    107 H48        -6.0370   -2.6200    0.8120 hc        1 MOL      0.087209
    108 H49        -7.0770   -2.6180   -0.6810 hc        1 MOL      0.087209
    109 H50        -5.6200   -6.7500   -1.1000 hc        1 MOL      0.004143
    110 H51        -7.0910   -6.0380   -0.4530 hc        1 MOL      0.004143
    111 H52        -7.0040   -6.7470   -2.1240 hc        1 MOL      0.004143
    112 N10        -2.6660   -2.7150   -2.9670 n         1 MOL     -0.219720
    113 C35        -1.4140   -3.1560   -3.6790 c3        1 MOL     -0.148276
    114 C36        -0.1190   -2.5210   -3.0610 c         1 MOL      0.398550
    115 O17         0.3550   -1.4370   -3.4400 o         1 MOL     -0.475083
    116 C37        -1.4700   -2.8500   -5.2120 c3        1 MOL      0.456308
    117 C38        -2.5200   -3.7500   -5.8350 c3        1 MOL     -0.289902
    118 O18        -0.3040   -3.1770   -5.8850 oh        1 MOL     -0.647124
    119 H53        -3.2380   -2.0310   -3.4360 hn        1 MOL      0.171941
    120 H54        -1.3440   -4.2380   -3.5930 h1        1 MOL      0.099216
    121 H55        -1.5820   -1.7800   -5.3720 h1        1 MOL     -0.033109
    122 H56         0.4700   -2.9010   -5.3880 ho        1 MOL      0.418364
    123 H57        -3.5470   -3.4330   -5.6640 hc        1 MOL      0.075296
    124 H58        -2.3770   -3.9060   -6.9070 hc        1 MOL      0.075296
    125 H59        -2.4460   -4.7360   -5.3620 hc        1 MOL      0.075296
    126 N11         0.4250   -3.2400   -2.0360 n         1 MOL     -0.376405
    127 C39         1.5710   -2.6110   -1.2720 c3        1 MOL     -0.117650
    128 C40         2.7980   -2.3560   -2.1560 c         1 MOL      0.503777
    129 O19         3.0930   -3.0070   -3.1660 o         1 MOL     -0.522741
    130 C41         1.9530   -3.4830   -0.0440 c3        1 MOL      0.529973
    131 C42         2.5610   -4.8840   -0.3940 c3        1 MOL     -0.610987
    132 O20         0.9160   -3.9480    0.7450 oh        1 MOL     -0.524384
    133 H60        -0.0030   -4.0710   -1.6450 hn        1 MOL      0.275042
    134 H61         1.2140   -1.6770   -0.8370 h1        1 MOL      0.083268
    135 H62         2.5410   -2.9050    0.6660 h1        1 MOL     -0.095872
    136 H63         0.4320   -3.1370    0.9270 ho        1 MOL      0.240777
    137 H64         2.8470   -5.5620    0.3980 hc        1 MOL      0.151386
    138 H65         1.7580   -5.4990   -0.7970 hc        1 MOL      0.151386
    139 H66         3.2710   -4.7930   -1.2210 hc        1 MOL      0.151386
    140 N12         3.5720   -1.3870   -1.6890 n         1 MOL     -0.253846
    141 C43         4.7970   -0.9020   -2.3830 c3        1 MOL     -0.076838
    142 C44         4.8720    0.6470   -2.5230 c         1 MOL      0.593061
    143 O21         5.4350    1.1570   -3.4620 o         1 MOL     -0.601375
    144 C45         6.0490   -1.4560   -1.6950 c3        1 MOL     -0.070878
    145 C46         6.1230   -3.0010   -1.7380 c3        1 MOL     -0.029358
    146 C47         7.5460   -3.5090   -1.1490 c3        1 MOL      0.017816
    147 C48         7.5800   -4.9970   -1.0160 c3        1 MOL      0.101654
    148 N13         8.9640   -5.4070   -0.7460 n4        1 MOL     -0.208815
    149 H67         3.3550   -0.9540   -0.8030 hn        1 MOL      0.051671
    150 H68         4.8050   -1.4100   -3.3480 h1        1 MOL      0.106115
    151 H69         6.2330   -1.0590   -0.6990 hc        1 MOL      0.041491
    152 H70         6.9190   -1.0700   -2.2300 hc        1 MOL      0.041491
    153 H71         5.9800   -3.3250   -2.7670 hc        1 MOL      0.037758
    154 H72         5.3790   -3.3840   -1.0330 hc        1 MOL      0.037758
    155 H73         7.6590   -3.1640   -0.1220 hc        1 MOL      0.017737
    156 H74         8.3920   -3.1130   -1.7010 hc        1 MOL      0.017737
    157 H75         7.1270   -5.5240   -1.8450 hx        1 MOL      0.035883
    158 H76         7.0960   -5.2360   -0.0650 hx        1 MOL      0.035883
    159 H77         9.6150   -5.1600   -1.4740 hn        1 MOL      0.241850
    160 H78         9.2860   -5.0360    0.1350 hn        1 MOL      0.241850
    161 H79         8.9960   -6.4150   -0.6380 hn        1 MOL      0.241850
    162 N14         4.4650    1.3560   -1.4340 n         1 MOL     -0.073318
    163 C49         4.5960    2.8250   -1.2480 c3        1 MOL      0.088409
    164 C50         6.0400    3.3070   -0.8860 c         1 MOL      0.240735
    165 O22         6.7240    2.8740    0.0400 o         1 MOL     -0.474989
    166 C51         3.5860    3.2690   -0.1870 c3        1 MOL      0.140674
    167 C52         3.6360    4.7580    0.3000 c3        1 MOL     -0.768741
    168 C53         3.3320    5.7930   -0.7630 c         1 MOL      1.028753
    169 O23         2.1360    5.9270   -1.1080 o         1 MOL     -0.834083
    170 O24         4.2280    6.4060   -1.3280 o         1 MOL     -0.834083
    171 H80         4.0720    0.8760   -0.6380 hn        1 MOL     -0.087377
    172 H81         4.3590    3.3030   -2.2040 h1        1 MOL     -0.012565
    173 H82         3.5370    2.6290    0.6910 hc        1 MOL      0.008157
    174 H83         2.6500    3.1080   -0.7180 hc        1 MOL      0.008157
    175 H84         4.6630    4.8240    0.6520 hc        1 MOL      0.234399
    176 H85         2.9240    4.8260    1.1320 hc        1 MOL      0.234399
    177 N15         6.5330    4.2330   -1.7040 n         1 MOL     -0.068538
    178 C54         7.9070    4.7430   -1.7300 c3        1 MOL     -0.227096
    179 H86         7.8910    5.8320   -1.6760 h1        1 MOL      0.097419
    180 H87         8.4580    4.3470   -0.8770 h1        1 MOL      0.097419
    181 H88         8.3930    4.4330   -2.6550 h1        1 MOL      0.097419
    182 H89         5.9320    4.6460   -2.3980 hn        1 MOL      0.257250
    183 Ca1         0.1830    4.8270   -2.1690 Ca        1 MOL      1.728334
    184 O25        -2.5390    5.3560   -2.6180 oh        1 MOL     -0.859864
    185 H90        -2.9170    5.2240   -3.4820 ho        1 MOL      0.431635
    186 H91        -3.2780    5.4870   -2.0350 ho        1 MOL      0.431635
    187 O26        -0.6840    3.2570   -4.3570 oh        1 MOL     -0.859864
    188 H92        -1.2570    2.8990   -5.0320 ho        1 MOL      0.431635
    189 H93        -0.3830    2.4880   -3.8700 ho        1 MOL      0.431635
    190 O27         2.2680    4.2970   -3.5150 oh        1 MOL     -0.859864
    191 H94         2.5960    3.6820   -4.1740 ho        1 MOL      0.431635
    192 H95         2.7590    5.1060   -3.6830 ho        1 MOL      0.431635
@<TRIPOS>BOND
     1    1    2 1   
     2    1    4 1   
     3    1    5 1   
     4    1    6 1   
     5    2    3 2   
     6    2    7 1   
     7    7    8 1   
     8    7   15 1   
     9    8    9 1   
    10    8   11 1   
    11    8   16 1   
    12    9   10 2   
    13    9   19 1   
    14   11   12 1   
    15   11   17 1   
    16   11   18 1   
    17   12   13 1   
    18   12   14 1   
    19   19   20 1   
    20   19   28 1   
    21   20   21 1   
    22   20   23 1   
    23   20   29 1   
    24   21   22 2   
    25   21   41 1   
    26   23   24 1   
    27   23   30 1   
    28   23   31 1   
    29   24   25 1   
    30   24   32 1   
    31   24   33 1   
    32   25   26 1   
    33   25   34 1   
    34   25   35 1   
    35   26   27 1   
    36   26   36 1   
    37   26   37 1   
    38   27   38 1   
    39   27   39 1   
    40   27   40 1   
    41   41   42 1   
    42   41   49 1   
    43   42   43 1   
    44   42   45 1   
    45   42   50 1   
    46   43   44 2   
    47   43   53 1   
    48   45   46 1   
    49   45   51 1   
    50   45   52 1   
    51   46   47 1   
    52   46   48 1   
    53   53   54 1   
    54   53   57 1   
    55   54   55 1   
    56   54   58 1   
    57   54   59 1   
    58   55   56 2   
    59   55   60 1   
    60   60   61 1   
    61   60   68 1   
    62   61   62 1   
    63   61   64 1   
    64   61   69 1   
    65   62   63 2   
    66   62   72 1   
    67   64   65 1   
    68   64   70 1   
    69   64   71 1   
    70   65   66 1   
    71   65   67 1   
    72   72   73 1   
    73   72   76 1   
    74   73   74 1   
    75   73   77 1   
    76   73   78 1   
    77   74   75 2   
    78   74   79 1   
    79   79   80 1   
    80   79   86 1   
    81   80   81 1   
    82   80   83 1   
    83   80   87 1   
    84   81   82 2   
    85   81   93 1   
    86   83   84 1   
    87   83   85 1   
    88   83   88 1   
    89   84   90 1   
    90   84   91 1   
    91   84   92 1   
    92   85   89 1   
    93   93   94 1   
    94   93  101 1   
    95   94   95 1   
    96   94   97 1   
    97   94  102 1   
    98   95   96 2   
    99   95  112 1   
   100   97   98 1   
   101   97   99 1   
   102   97  103 1   
   103   98  100 1   
   104   98  104 1   
   105   98  105 1   
   106   99  106 1   
   107   99  107 1   
   108   99  108 1   
   109  100  109 1   
   110  100  110 1   
   111  100  111 1   
   112  112  113 1   
   113  112  119 1   
   114  113  114 1   
   115  113  116 1   
   116  113  120 1   
   117  114  115 2   
   118  114  126 1   
   119  116  117 1   
   120  116  118 1   
   121  116  121 1   
   122  117  123 1   
   123  117  124 1   
   124  117  125 1   
   125  118  122 1   
   126  126  127 1   
   127  126  133 1   
   128  127  128 1   
   129  127  130 1   
   130  127  134 1   
   131  128  129 2   
   132  128  140 1   
   133  130  131 1   
   134  130  132 1   
   135  130  135 1   
   136  131  137 1   
   137  131  138 1   
   138  131  139 1   
   139  132  136 1   
   140  140  141 1   
   141  140  149 1   
   142  141  142 1   
   143  141  144 1   
   144  141  150 1   
   145  142  143 2   
   146  142  162 1   
   147  144  145 1   
   148  144  151 1   
   149  144  152 1   
   150  145  146 1   
   151  145  153 1   
   152  145  154 1   
   153  146  147 1   
   154  146  155 1   
   155  146  156 1   
   156  147  148 1   
   157  147  157 1   
   158  147  158 1   
   159  148  159 1   
   160  148  160 1   
   161  148  161 1   
   162  162  163 1   
   163  162  171 1   
   164  163  164 1   
   165  163  166 1   
   166  163  172 1   
   167  164  165 2   
   168  164  177 1   
   169  166  167 1   
   170  166  173 1   
   171  166  174 1   
   172  167  168 1   
   173  167  175 1   
   174  167  176 1   
   175  168  169 1   
   176  168  170 1   
   177  177  178 1   
   178  177  182 1   
   179  178  179 1   
   180  178  180 1   
   181  178  181 1   
   182  184  185 1   
   183  184  186 1   
   184  187  188 1   
   185  187  189 1   
   186  190  191 1   
   187  190  192 1   
@<TRIPOS>SUBSTRUCTURE
     1 MOL         1 TEMP              0 ****  ****    0 ROOT
