@<TRIPOS>MOLECULE
MOL
  192   187     1     0     0
SMALL
resp


@<TRIPOS>ATOM
      1 C1          0.9910    8.9500    0.9650 c3        1 MOL     -0.433411
      2 C2          0.2660    7.6370    1.3250 c         1 MOL      0.666455
      3 O1         -0.4090    7.5520    2.3760 o         1 MOL     -0.549451
      4 H1          1.7940    9.1290    1.6800 hc        1 MOL      0.114690
      5 H2          1.4100    8.8700   -0.0390 hc        1 MOL      0.114690
      6 H3          0.2830    9.7770    1.0000 hc        1 MOL      0.114690
      7 N1          0.3960    6.6240    0.4530 n         1 MOL     -0.495467
      8 C3         -0.1140    5.2440    0.6280 c3        1 MOL      0.026773
      9 C4          0.9620    4.1640    0.2480 c         1 MOL      0.457038
     10 O2          0.6190    2.9530    0.1590 o         1 MOL     -0.483960
     11 C5         -1.4100    4.9920   -0.1370 c3        1 MOL     -0.132778
     12 C6         -1.2700    5.4250   -1.5860 c         1 MOL      0.705791
     13 O3         -0.6640    4.6540   -2.3670 o         1 MOL     -0.727278
     14 O4         -1.7750    6.5150   -2.0150 o         1 MOL     -0.727278
     15 H4          1.0830    6.7520   -0.2690 hn        1 MOL      0.288469
     16 H5         -0.3770    5.0680    1.6770 h1        1 MOL      0.098147
     17 H6         -2.2330    5.6080    0.2320 hc        1 MOL      0.064062
     18 H7         -1.7450    3.9570   -0.0920 hc        1 MOL      0.064062
     19 N2          2.2320    4.5610   -0.0410 n         1 MOL     -0.493209
     20 C7          3.2960    3.6950   -0.5550 c3        1 MOL      0.381476
     21 C8          4.0360    3.0650    0.5740 c         1 MOL      0.511650
     22 O5          4.4980    3.8260    1.4130 o         1 MOL     -0.567775
     23 C9          4.2560    4.4580   -1.5010 c3        1 MOL     -0.257814
     24 C10         3.5830    5.3120   -2.6360 c3        1 MOL     -0.011978
     25 C11         2.6330    4.5280   -3.5320 c3        1 MOL      0.026237
     26 C12         2.0760    5.3130   -4.7360 c3        1 MOL     -0.060899
     27 N3          0.9190    6.2550   -4.3560 n4        1 MOL     -0.385843
     28 H8          2.4610    5.5380    0.0600 hn        1 MOL      0.239302
     29 H9          2.9010    2.9190   -1.2190 h1        1 MOL      0.007042
     30 H10         5.0580    3.8330   -1.9050 hc        1 MOL      0.084206
     31 H11         4.8350    5.0900   -0.8240 hc        1 MOL      0.084206
     32 H12         4.3870    5.6810   -3.2740 hc        1 MOL     -0.004113
     33 H13         3.0510    6.1440   -2.1690 hc        1 MOL     -0.004113
     34 H14         1.7960    4.1820   -2.9320 hc        1 MOL      0.071563
     35 H15         3.1780    3.6530   -3.8860 hc        1 MOL      0.071563
     36 H16         1.7940    4.6630   -5.5680 hx        1 MOL      0.089854
     37 H17         2.9350    5.9320   -5.0080 hx        1 MOL      0.089854
     38 H18         0.4890    6.5680   -5.2130 hn        1 MOL      0.318118
     39 H19         0.2120    5.6750   -3.9230 hn        1 MOL      0.318118
     40 H20         1.2580    7.0240   -3.8000 hn        1 MOL      0.318118
     41 N4          4.1820    1.7370    0.6380 n         1 MOL     -0.495070
     42 C13         4.1260    0.6860   -0.4330 c3        1 MOL      0.015946
     43 C14         4.6270    1.1320   -1.8820 c         1 MOL      0.451989
     44 O6          3.8190    1.3600   -2.8120 o         1 MOL     -0.551429
     45 C15         2.7910    0.0790   -0.5890 c3        1 MOL      0.101808
     46 C16         2.3710   -0.6810    0.6830 c         1 MOL      0.747268
     47 O7          3.1550   -1.1100    1.5630 o         1 MOL     -0.780308
     48 O8          1.1400   -0.8420    0.8270 o         1 MOL     -0.780308
     49 H21         4.4780    1.3380    1.5150 hn        1 MOL      0.358643
     50 H22         4.8750   -0.0070   -0.0620 h1        1 MOL      0.023247
     51 H23         2.9220   -0.6590   -1.3750 hc        1 MOL     -0.008346
     52 H24         2.1110    0.9020   -0.8090 hc        1 MOL     -0.008346
     53 N5          5.9470    1.2800   -2.1260 n         1 MOL     -0.458120
     54 C17         7.0080    1.4150   -1.1820 c3        1 MOL      0.124883
     55 C18         8.1400    0.3870   -1.3210 c         1 MOL      0.479543
     56 O9          8.6590    0.2070   -2.3440 o         1 MOL     -0.545093
     57 H25         6.1390    1.4810   -3.0970 hn        1 MOL      0.312748
     58 H26         6.5710    1.5850   -0.1980 h1        1 MOL      0.037438
     59 H27         7.4960    2.3800   -1.3170 h1        1 MOL      0.037438
     60 N6          8.7420   -0.1600   -0.2760 n         1 MOL     -0.176334
     61 C19         8.4410    0.1020    1.1520 c3        1 MOL     -0.184424
     62 C20         7.2290   -0.7440    1.7710 c         1 MOL      0.553624
     63 O10         6.8570   -0.5020    2.8750 o         1 MOL     -0.552284
     64 C21         9.6750   -0.1650    1.9650 c3        1 MOL     -0.231683
     65 C22        11.0130    0.2830    1.3340 c         1 MOL      0.710463
     66 O11        11.0720    1.4610    1.0860 o         1 MOL     -0.647535
     67 O12        11.9160   -0.5500    1.0680 o         1 MOL     -0.647535
     68 H28         9.5390   -0.7050   -0.5390 hn        1 MOL      0.243189
     69 H29         8.2480    1.1500    1.3760 h1        1 MOL      0.121111
     70 H30         9.7010   -1.2050    2.2940 hc        1 MOL      0.062951
     71 H31         9.6980    0.3680    2.9240 hc        1 MOL      0.062951
     72 N7          6.7610   -1.6990    0.9880 n         1 MOL     -0.290747
     73 C23         5.7530   -2.7220    1.3720 c3        1 MOL      0.021705
     74 C24         4.8120   -3.1760    0.2390 c         1 MOL      0.554633
     75 O13         4.9750   -2.9260   -0.9560 o         1 MOL     -0.516688
     76 H32         7.1380   -1.7510    0.0500 hn        1 MOL      0.144915
     77 H33         5.1820   -2.4990    2.2780 h1        1 MOL      0.069884
     78 H34         6.2820   -3.6140    1.7080 h1        1 MOL      0.069884
     79 N8          3.8470   -3.9940    0.6350 n         1 MOL     -0.502342
     80 C25         2.9550   -4.7100   -0.2720 c3        1 MOL      0.059964
     81 C26         1.6490   -3.9640   -0.5440 c         1 MOL      0.580859
     82 O14         0.9550   -3.6740    0.4430 o         1 MOL     -0.632355
     83 C27         2.7660   -6.1980    0.0440 c3        1 MOL      0.343360
     84 C28         2.3110   -6.5470    1.4310 c3        1 MOL     -0.184576
     85 O15         4.0510   -6.8360   -0.0880 oh        1 MOL     -0.609390
     86 H35         3.6350   -4.1580    1.6080 hn        1 MOL      0.234158
     87 H36         3.4470   -4.7560   -1.2460 h1        1 MOL      0.057178
     88 H37         2.0930   -6.5680   -0.7310 h1        1 MOL     -0.015275
     89 H38         4.1510   -7.0620   -1.0080 ho        1 MOL      0.383740
     90 H39         3.1630   -6.3740    2.0840 hc        1 MOL      0.044541
     91 H40         1.5600   -5.8240    1.7370 hc        1 MOL      0.044541
     92 H41         2.0540   -7.5850    1.6670 hc        1 MOL      0.044541
     93 N9          1.2020   -3.7280   -1.7600 n         1 MOL     -0.426887
     94 C29        -0.0770   -3.1000   -2.1190 c3        1 MOL     -0.014681
     95 C30        -1.1000   -4.2600   -2.1870 c         1 MOL      0.364688
     96 O16        -1.0780   -5.1330   -3.0570 o         1 MOL     -0.520309
     97 C31         0.1400   -2.3620   -3.4250 c3        1 MOL      0.334715
     98 C32         1.1960   -1.2390   -3.5520 c3        1 MOL     -0.118373
     99 C33        -1.1810   -1.8140   -3.9490 c3        1 MOL     -0.542238
    100 C34         2.6580   -1.6930   -3.9400 c3        1 MOL     -0.069928
    101 H42         1.7730   -3.9560   -2.5640 hn        1 MOL      0.252297
    102 H43        -0.2520   -2.3810   -1.3100 h1        1 MOL      0.092736
    103 H44         0.4260   -3.0720   -4.2090 hc        1 MOL     -0.027486
    104 H45         1.2590   -0.7180   -2.5970 hc        1 MOL      0.049370
    105 H46         0.8430   -0.5470   -4.3290 hc        1 MOL      0.049370
    106 H47        -0.9740   -1.4890   -4.9700 hc        1 MOL      0.127634
    107 H48        -1.9570   -2.5820   -3.8890 hc        1 MOL      0.127634
    108 H49        -1.5640   -1.0010   -3.3290 hc        1 MOL      0.127634
    109 H50         3.1920   -0.7570   -4.1030 hc        1 MOL      0.026430
    110 H51         3.0480   -2.3170   -3.1450 hc        1 MOL      0.026430
    111 H52         2.6310   -2.2740   -4.8680 hc        1 MOL      0.026430
    112 N10        -2.1240   -4.1650   -1.3230 n         1 MOL     -0.055100
    113 C35        -3.4700   -4.8820   -1.5280 c3        1 MOL     -0.259997
    114 C36        -4.6510   -3.8660   -1.7950 c         1 MOL      0.550002
    115 O17        -5.7260   -4.2910   -1.9360 o         1 MOL     -0.524086
    116 C37        -3.8130   -5.9470   -0.4720 c3        1 MOL      0.461504
    117 C38        -4.0590   -5.3690    0.9220 c3        1 MOL     -0.307486
    118 O18        -2.7490   -6.8340   -0.4320 oh        1 MOL     -0.615011
    119 H53        -2.0620   -3.5140   -0.5530 hn        1 MOL      0.180019
    120 H54        -3.4590   -5.5020   -2.4160 h1        1 MOL      0.116259
    121 H55        -4.7100   -6.5050   -0.7680 h1        1 MOL     -0.020292
    122 H56        -2.6860   -7.1020   -1.3440 ho        1 MOL      0.375047
    123 H57        -4.6780   -6.0780    1.4720 hc        1 MOL      0.076344
    124 H58        -3.1070   -5.1410    1.4170 hc        1 MOL      0.076344
    125 H59        -4.5390   -4.3970    1.0090 hc        1 MOL      0.076344
    126 N11        -4.3620   -2.5790   -1.9560 n         1 MOL     -0.360785
    127 C39        -5.2290   -1.4910   -2.2020 c3        1 MOL      0.162609
    128 C40        -6.1840   -1.1250   -1.0110 c         1 MOL      0.449548
    129 O19        -6.5390   -2.0050   -0.2360 o         1 MOL     -0.459410
    130 C41        -6.0780   -1.6510   -3.5190 c3        1 MOL      0.240292
    131 C42        -5.2970   -2.1940   -4.7440 c3        1 MOL     -0.325058
    132 O20        -6.5500   -0.3990   -3.9940 oh        1 MOL     -0.669376
    133 H60        -3.4150   -2.3140   -1.7220 hn        1 MOL      0.198008
    134 H61        -4.6230   -0.5910   -2.3560 h1        1 MOL      0.057419
    135 H62        -6.8520   -2.3690   -3.2540 h1        1 MOL      0.038534
    136 H63        -6.8420   -0.5680   -4.8900 ho        1 MOL      0.416534
    137 H64        -4.5170   -1.4990   -5.0240 hc        1 MOL      0.088264
    138 H65        -4.7250   -3.0960   -4.5070 hc        1 MOL      0.088264
    139 H66        -5.9950   -2.3010   -5.5750 hc        1 MOL      0.088264
    140 N12        -6.5400    0.1910   -0.8880 n         1 MOL     -0.519205
    141 C43        -7.5220    0.6420    0.0510 c3        1 MOL     -0.060443
    142 C44        -7.1520    0.6290    1.5310 c         1 MOL      0.396612
    143 O21        -8.0260    0.4560    2.3690 o         1 MOL     -0.553621
    144 C45        -7.9280    2.0330   -0.4070 c3        1 MOL      0.141022
    145 C46        -9.2070    2.5920    0.1720 c3        1 MOL     -0.347057
    146 C47       -10.5000    1.8010    0.0650 c3        1 MOL      0.103038
    147 C48       -10.8030    1.2740   -1.3280 c3        1 MOL      0.075541
    148 N13       -12.1570    0.6120   -1.4760 n4        1 MOL     -0.462628
    149 H67        -6.1430    0.8540   -1.5390 hn        1 MOL      0.320665
    150 H68        -8.3890   -0.0300    0.0120 h1        1 MOL      0.146603
    151 H69        -8.1010    1.9910   -1.4840 hc        1 MOL     -0.001761
    152 H70        -7.0650    2.6220   -0.1090 hc        1 MOL     -0.001761
    153 H71        -9.3330    3.6150   -0.1770 hc        1 MOL      0.129887
    154 H72        -8.8780    2.5430    1.2060 hc        1 MOL      0.129887
    155 H73       -11.3550    2.3980    0.4080 hc        1 MOL      0.008380
    156 H74       -10.3290    0.9070    0.6660 hc        1 MOL      0.008380
    157 H75       -10.0720    0.4800   -1.4930 hx        1 MOL      0.067902
    158 H76       -10.7480    2.1570   -1.9680 hx        1 MOL      0.067902
    159 H77       -12.3370    0.1590   -2.3620 hn        1 MOL      0.300252
    160 H78       -12.1770   -0.1740   -0.8480 hn        1 MOL      0.300252
    161 H79       -12.8970    1.2960   -1.3600 hn        1 MOL      0.300252
    162 N14        -5.9160    0.8600    1.8980 n         1 MOL      0.025493
    163 C49        -5.4050    1.0960    3.2610 c3        1 MOL     -0.322050
    164 C50        -5.7450    2.5060    3.7050 c         1 MOL      0.534493
    165 O22        -5.7410    3.4470    2.9110 o         1 MOL     -0.516268
    166 C51        -3.8860    0.7200    3.4100 c3        1 MOL      0.189192
    167 C52        -3.6640   -0.7860    3.2230 c3        1 MOL     -0.123172
    168 C53        -2.1710   -1.0880    2.9620 c         1 MOL      0.679223
    169 O23        -1.8840   -1.9490    2.0910 o         1 MOL     -0.735498
    170 O24        -1.1980   -0.5950    3.5670 o         1 MOL     -0.735498
    171 H80        -5.2900    1.0010    1.1150 hn        1 MOL      0.171014
    172 H81        -5.9540    0.5220    4.0130 h1        1 MOL      0.105451
    173 H82        -3.5730    0.9760    4.4220 hc        1 MOL      0.002797
    174 H83        -3.2590    1.3210    2.7490 hc        1 MOL      0.002797
    175 H84        -4.2680   -1.1070    2.3770 hc        1 MOL      0.018503
    176 H85        -3.9600   -1.3580    4.1020 hc        1 MOL      0.018503
    177 N15        -6.2780    2.6520    4.9470 n         1 MOL     -0.297540
    178 C54        -6.8060    3.9060    5.5020 c3        1 MOL     -0.309175
    179 H86        -6.0720    4.7010    5.3670 h1        1 MOL      0.135253
    180 H87        -7.7280    4.1730    4.9850 h1        1 MOL      0.135253
    181 H88        -7.0090    3.7770    6.5660 h1        1 MOL      0.135253
    182 H89        -6.3210    1.8380    5.5530 hn        1 MOL      0.263541
    183 Ca1         0.7240   -2.3400    2.7850 Ca        1 MOL      1.787532
    184 O25         0.5370   -2.8380    5.4110 oh        1 MOL     -0.864823
    185 H90         1.0200   -3.5840    5.7950 ho        1 MOL      0.429841
    186 H91        -0.1710   -2.6740    6.0350 ho        1 MOL      0.429841
    187 O26        -0.5820   -4.5840    3.1570 oh        1 MOL     -0.864823
    188 H92        -0.5000   -5.3950    2.6490 ho        1 MOL      0.429841
    189 H93        -0.7160   -4.8790    4.0600 ho        1 MOL      0.429841
    190 O27         2.0660   -0.4340    4.2370 oh        1 MOL     -0.864823
    191 H94         2.7560    0.2040    4.1120 ho        1 MOL      0.429841
    192 H95         1.7550   -0.2940    5.1380 ho        1 MOL      0.429841
@<TRIPOS>BOND
     1    1    2 1   
     2    1    4 1   
     3    1    5 1   
     4    1    6 1   
     5    2    3 2   
     6    2    7 1   
     7    7    8 1   
     8    7   15 1   
     9    8    9 1   
    10    8   11 1   
    11    8   16 1   
    12    9   10 2   
    13    9   19 1   
    14   11   12 1   
    15   11   17 1   
    16   11   18 1   
    17   12   13 1   
    18   12   14 1   
    19   19   20 1   
    20   19   28 1   
    21   20   21 1   
    22   20   23 1   
    23   20   29 1   
    24   21   22 2   
    25   21   41 1   
    26   23   24 1   
    27   23   30 1   
    28   23   31 1   
    29   24   25 1   
    30   24   32 1   
    31   24   33 1   
    32   25   26 1   
    33   25   34 1   
    34   25   35 1   
    35   26   27 1   
    36   26   36 1   
    37   26   37 1   
    38   27   38 1   
    39   27   39 1   
    40   27   40 1   
    41   41   42 1   
    42   41   49 1   
    43   42   43 1   
    44   42   45 1   
    45   42   50 1   
    46   43   44 2   
    47   43   53 1   
    48   45   46 1   
    49   45   51 1   
    50   45   52 1   
    51   46   47 1   
    52   46   48 1   
    53   53   54 1   
    54   53   57 1   
    55   54   55 1   
    56   54   58 1   
    57   54   59 1   
    58   55   56 2   
    59   55   60 1   
    60   60   61 1   
    61   60   68 1   
    62   61   62 1   
    63   61   64 1   
    64   61   69 1   
    65   62   63 2   
    66   62   72 1   
    67   64   65 1   
    68   64   70 1   
    69   64   71 1   
    70   65   66 1   
    71   65   67 1   
    72   72   73 1   
    73   72   76 1   
    74   73   74 1   
    75   73   77 1   
    76   73   78 1   
    77   74   75 2   
    78   74   79 1   
    79   79   80 1   
    80   79   86 1   
    81   80   81 1   
    82   80   83 1   
    83   80   87 1   
    84   81   82 2   
    85   81   93 1   
    86   83   84 1   
    87   83   85 1   
    88   83   88 1   
    89   84   90 1   
    90   84   91 1   
    91   84   92 1   
    92   85   89 1   
    93   93   94 1   
    94   93  101 1   
    95   94   95 1   
    96   94   97 1   
    97   94  102 1   
    98   95   96 2   
    99   95  112 1   
   100   97   98 1   
   101   97   99 1   
   102   97  103 1   
   103   98  100 1   
   104   98  104 1   
   105   98  105 1   
   106   99  106 1   
   107   99  107 1   
   108   99  108 1   
   109  100  109 1   
   110  100  110 1   
   111  100  111 1   
   112  112  113 1   
   113  112  119 1   
   114  113  114 1   
   115  113  116 1   
   116  113  120 1   
   117  114  115 2   
   118  114  126 1   
   119  116  117 1   
   120  116  118 1   
   121  116  121 1   
   122  117  123 1   
   123  117  124 1   
   124  117  125 1   
   125  118  122 1   
   126  126  127 1   
   127  126  133 1   
   128  127  128 1   
   129  127  130 1   
   130  127  134 1   
   131  128  129 2   
   132  128  140 1   
   133  130  131 1   
   134  130  132 1   
   135  130  135 1   
   136  131  137 1   
   137  131  138 1   
   138  131  139 1   
   139  132  136 1   
   140  140  141 1   
   141  140  149 1   
   142  141  142 1   
   143  141  144 1   
   144  141  150 1   
   145  142  143 2   
   146  142  162 1   
   147  144  145 1   
   148  144  151 1   
   149  144  152 1   
   150  145  146 1   
   151  145  153 1   
   152  145  154 1   
   153  146  147 1   
   154  146  155 1   
   155  146  156 1   
   156  147  148 1   
   157  147  157 1   
   158  147  158 1   
   159  148  159 1   
   160  148  160 1   
   161  148  161 1   
   162  162  163 1   
   163  162  171 1   
   164  163  164 1   
   165  163  166 1   
   166  163  172 1   
   167  164  165 2   
   168  164  177 1   
   169  166  167 1   
   170  166  173 1   
   171  166  174 1   
   172  167  168 1   
   173  167  175 1   
   174  167  176 1   
   175  168  169 1   
   176  168  170 1   
   177  177  178 1   
   178  177  182 1   
   179  178  179 1   
   180  178  180 1   
   181  178  181 1   
   182  184  185 1   
   183  184  186 1   
   184  187  188 1   
   185  187  189 1   
   186  190  191 1   
   187  190  192 1   
@<TRIPOS>SUBSTRUCTURE
     1 MOL         1 TEMP              0 ****  ****    0 ROOT
