@<TRIPOS>MOLECULE
MOL
  179   176     1     0     0
SMALL
resp


@<TRIPOS>ATOM
      1 C1         -0.2150   -4.7590    5.6280 c3        1 MOL     -0.291499
      2 C2          0.0440   -4.5010    4.1200 c         1 MOL      0.660208
      3 O1         -0.8760   -4.7740    3.2960 o         1 MOL     -0.571411
      4 H1          0.0760   -3.8790    6.2010 hc        1 MOL      0.080296
      5 H2         -1.2740   -4.9600    5.7860 hc        1 MOL      0.080296
      6 H3          0.3720   -5.6170    5.9560 hc        1 MOL      0.080296
      7 N1          1.2440   -3.9460    3.7590 n         1 MOL     -0.527987
      8 C3          1.6120   -3.4530    2.4460 c3        1 MOL      0.097136
      9 C4          1.9940   -4.6370    1.5640 c         1 MOL      0.414160
     10 O2          3.0610   -5.2500    1.7670 o         1 MOL     -0.513725
     11 C5          2.6430   -2.3390    2.7400 c3        1 MOL      0.162600
     12 C6          2.9510   -1.5470    1.4810 c         1 MOL      0.700108
     13 O3          3.3780   -0.3960    1.5780 o         1 MOL     -0.737964
     14 O4          2.6210   -2.0610    0.3370 o         1 MOL     -0.737964
     15 H4          1.9500   -3.8700    4.4710 hn        1 MOL      0.287518
     16 H5          0.7530   -2.9220    2.0550 h1        1 MOL      0.016519
     17 H6          3.6390   -2.6510    3.0780 hc        1 MOL     -0.051790
     18 H7          2.2460   -1.6310    3.4620 hc        1 MOL     -0.051790
     19 N2          1.1830   -4.9320    0.5710 n         1 MOL     -0.173967
     20 C7          1.3850   -5.8750   -0.5570 c3        1 MOL     -0.111767
     21 C8          2.5870   -5.5500   -1.4800 c         1 MOL      0.480012
     22 O5          3.0250   -6.4140   -2.2500 o         1 MOL     -0.541727
     23 C9          0.1380   -5.8740   -1.5170 c3        1 MOL     -0.226484
     24 C10        -0.1960   -4.5160   -2.1620 c3        1 MOL      0.238978
     25 C11        -1.4940   -4.5030   -3.0900 c3        1 MOL     -0.228457
     26 C12        -1.6660   -3.1560   -3.8180 c3        1 MOL      0.095226
     27 N3         -2.8420   -3.1580   -4.6710 n4        1 MOL     -0.330906
     28 H8          0.2740   -4.4950    0.6650 hn        1 MOL      0.181075
     29 H9          1.5490   -6.8390   -0.0870 h1        1 MOL      0.141613
     30 H10        -0.7930   -6.2090   -1.0560 hc        1 MOL      0.078211
     31 H11         0.3430   -6.5330   -2.3680 hc        1 MOL      0.078211
     32 H12         0.5920   -4.2350   -2.8670 hc        1 MOL      0.044973
     33 H13        -0.4080   -3.7690   -1.3970 hc        1 MOL      0.044973
     34 H14        -2.3660   -4.7290   -2.4790 hc        1 MOL      0.051197
     35 H15        -1.4520   -5.2770   -3.8610 hc        1 MOL      0.051197
     36 H16        -0.7980   -2.8970   -4.4210 hx        1 MOL      0.072143
     37 H17        -1.6540   -2.4310   -2.9980 hx        1 MOL      0.072143
     38 H18        -3.0620   -2.2660   -5.1060 hn        1 MOL      0.319208
     39 H19        -2.7570   -3.8480   -5.3960 hn        1 MOL      0.319208
     40 H20        -3.6520   -3.4800   -4.1580 hn        1 MOL      0.319208
     41 N4          3.1760   -4.3120   -1.4380 n         1 MOL     -0.167470
     42 C13         4.3340   -3.9850   -2.2820 c3        1 MOL      0.242235
     43 C14         5.5370   -3.5710   -1.4660 c         1 MOL      0.238801
     44 O6          6.6560   -3.7500   -1.9660 o         1 MOL     -0.515445
     45 C15         4.1450   -2.9010   -3.3810 c3        1 MOL     -0.401033
     46 C16         3.4060   -1.7370   -2.6940 c         1 MOL      0.827821
     47 O7          4.0880   -0.8050   -2.1670 o         1 MOL     -0.798583
     48 O8          2.2110   -1.8700   -2.4020 o         1 MOL     -0.798583
     49 H21         2.5590   -3.5820   -1.1180 hn        1 MOL      0.024584
     50 H22         4.6520   -4.8260   -2.9190 h1        1 MOL      0.082284
     51 H23         3.5230   -3.2990   -4.1890 hc        1 MOL      0.113400
     52 H24         5.1460   -2.6060   -3.7010 hc        1 MOL      0.113400
     53 N5          5.3940   -3.1810   -0.2220 n         1 MOL      0.010209
     54 C17         6.4490   -2.6980    0.7870 c3        1 MOL     -0.174715
     55 C18         6.9380   -1.2040    0.5960 c         1 MOL      0.559904
     56 O9          7.9140   -0.8840    1.2440 o         1 MOL     -0.565069
     57 H25         4.4320   -3.3470    0.0520 hn        1 MOL      0.049402
     58 H26         7.2960   -3.3710    0.7150 h1        1 MOL      0.111847
     59 H27         6.0550   -2.7800    1.8010 h1        1 MOL      0.111847
     60 N6          6.5080   -0.4540   -0.4000 n         1 MOL     -0.223757
     61 C19         6.8300    0.9040   -0.7310 c3        1 MOL      0.152090
     62 C20         5.6760    1.8560   -0.5680 c         1 MOL      0.416244
     63 O10         4.4870    1.5180   -0.4240 o         1 MOL     -0.419479
     64 C21         7.3620    0.8200   -2.1650 c3        1 MOL     -0.238990
     65 C22         8.8180    0.3650   -2.3290 c         1 MOL      0.684065
     66 N7          9.7860    1.2350   -2.2860 n         1 MOL     -0.806206
     67 O11         9.0430   -0.8110   -2.5820 o         1 MOL     -0.536098
     68 H28         5.8490   -0.8910   -1.0250 hn        1 MOL      0.191521
     69 H29         7.6570    1.2520   -0.1050 h1        1 MOL      0.006357
     70 H30         7.4070    1.8200   -2.5920 hc        1 MOL      0.061972
     71 H31         6.7390    0.2190   -2.8190 hc        1 MOL      0.061972
     72 H32         9.5720    2.1550   -1.9470 hn        1 MOL      0.368465
     73 H33        10.7230    0.9250   -2.4750 hn        1 MOL      0.368465
     74 N8          5.9760    3.1760   -0.7860 n         1 MOL     -0.292563
     75 C23         5.0060    4.2810   -1.0990 c3        1 MOL     -0.293981
     76 C24         3.9920    4.6100   -0.0070 c         1 MOL      0.625202
     77 O12         4.2890    4.3870    1.1920 o         1 MOL     -0.522138
     78 H34         6.9480    3.4350   -0.6910 hn        1 MOL      0.263640
     79 H35         4.4350    4.0800   -2.0070 h1        1 MOL      0.127071
     80 H36         5.5410    5.2200   -1.2790 h1        1 MOL      0.127071
     81 N9          2.7930    4.9000   -0.3870 n         1 MOL     -0.623835
     82 C25         1.5620    4.8650    0.4380 c3        1 MOL      0.463205
     83 C26         1.2830    3.4990    1.0060 c         1 MOL      0.277441
     84 O13         1.8220    2.5240    0.5590 o         1 MOL     -0.462643
     85 C27         0.3770    5.3850   -0.4300 c3        1 MOL     -0.116518
     86 C28         0.6560    6.8680   -0.8750 ca        1 MOL      0.105638
     87 C29         0.8660    7.7600    0.1490 ca        1 MOL     -0.213065
     88 C30         0.7420    7.2210   -2.1800 ca        1 MOL     -0.213065
     89 C31         1.0150    9.1180   -0.0920 ca        1 MOL     -0.235788
     90 C32         0.9030    8.6090   -2.5060 ca        1 MOL     -0.235788
     91 C33         0.8510    9.5380   -1.4540 ca        1 MOL      0.319484
     92 O14         0.6940   10.8620   -1.6400 oh        1 MOL     -0.439406
     93 H37         2.7270    5.0990   -1.3770 hn        1 MOL      0.291570
     94 H38         1.6510    5.4960    1.3190 h1        1 MOL      0.000739
     95 H39        -0.5420    5.2840    0.1310 hc        1 MOL      0.030967
     96 H40         0.2050    4.7810   -1.3260 hc        1 MOL      0.030967
     97 H41         0.8710    7.4800    1.1940 ha        1 MOL      0.147241
     98 H42         0.5640    6.4640   -2.9270 ha        1 MOL      0.147241
     99 H43         1.1420    9.8110    0.7240 ha        1 MOL      0.160784
    100 H44         0.9150    8.9410   -3.5250 ha        1 MOL      0.160784
    101 H45         0.9310   11.1450   -2.5270 ho        1 MOL      0.349036
    102 N10         0.4910    3.5120    2.1050 n         1 MOL     -0.682174
    103 C34         0.2950    2.4350    3.0280 c3        1 MOL      0.370513
    104 C35        -0.2520    1.0250    2.5030 c         1 MOL      0.736231
    105 O15         0.3370    0.4460    1.6150 o         1 MOL     -0.645366
    106 C36         1.4540    2.3170    4.0550 c3        1 MOL      0.422719
    107 C37         1.0530    1.5480    5.2960 c3        1 MOL     -0.157486
    108 C38         2.0570    3.7060    4.3770 c3        1 MOL     -0.314196
    109 C39         0.1380    2.2780    6.2950 c3        1 MOL     -0.332346
    110 H46         0.1240    4.3790    2.4470 hn        1 MOL      0.329748
    111 H47        -0.5680    2.7370    3.6300 h1        1 MOL     -0.083853
    112 H48         2.2090    1.6610    3.6370 hc        1 MOL     -0.054011
    113 H49         1.9770    1.2340    5.7880 hc        1 MOL      0.052729
    114 H50         0.5770    0.6560    4.8980 hc        1 MOL      0.052729
    115 H51         2.6750    4.0410    3.5410 hc        1 MOL      0.073544
    116 H52         1.2750    4.3850    4.7280 hc        1 MOL      0.073544
    117 H53         2.7310    3.6200    5.2270 hc        1 MOL      0.073544
    118 H54        -0.8100    2.5380    5.8280 hc        1 MOL      0.083248
    119 H55        -0.0020    1.5910    7.1290 hc        1 MOL      0.083248
    120 H56         0.6000    3.1550    6.7420 hc        1 MOL      0.083248
    121 N11        -1.3910    0.5060    2.9630 n         1 MOL     -0.828316
    122 C40        -1.9200   -0.8360    2.6710 c3        1 MOL      0.327648
    123 C41        -3.0440   -0.8140    1.6420 c         1 MOL      0.264064
    124 O16        -3.7760   -1.8300    1.5900 o         1 MOL     -0.490852
    125 C42        -2.1650   -1.5210    4.0160 c3        1 MOL     -0.067862
    126 O17        -0.9740   -1.5210    4.7770 oh        1 MOL     -0.508753
    127 H57        -1.7580    0.9190    3.8150 hn        1 MOL      0.376908
    128 H58        -1.0870   -1.3370    2.1770 h1        1 MOL      0.108625
    129 H59        -2.4670   -2.5600    3.8770 h1        1 MOL      0.088086
    130 H60        -2.8810   -0.9120    4.5740 h1        1 MOL      0.088086
    131 H61        -1.1380   -2.0910    5.5390 ho        1 MOL      0.372172
    132 N12        -3.3030    0.2030    0.8010 n         1 MOL     -0.056123
    133 C43        -4.5350    0.2370   -0.0570 c3        1 MOL     -0.229495
    134 C44        -4.3410   -0.7820   -1.1830 c         1 MOL      0.910836
    135 O18        -3.2290   -0.8240   -1.6740 o         1 MOL     -0.715104
    136 C45        -4.7720    1.6070   -0.6170 c3        1 MOL     -0.074538
    137 H62        -2.7950    1.0500    0.9640 hn        1 MOL      0.146350
    138 H63        -5.4450    0.0350    0.5150 h1        1 MOL      0.128838
    139 H64        -5.7690    1.6030   -1.0670 hc        1 MOL      0.040156
    140 H65        -4.6230    2.3060    0.1970 hc        1 MOL      0.040156
    141 H66        -4.0360    2.0230   -1.3100 hc        1 MOL      0.040156
    142 N13        -5.3150   -1.6140   -1.5250 n         1 MOL     -0.710468
    143 C46        -6.6900   -1.6970   -0.9760 c3        1 MOL      0.219391
    144 C47        -7.6680   -0.8890   -1.8500 c         1 MOL      0.590308
    145 O19        -7.4230   -0.6160   -3.0280 o         1 MOL     -0.584472
    146 C48        -7.0480   -3.1940   -0.8260 c3        1 MOL     -0.211271
    147 H67        -5.0760   -2.3600   -2.1590 hn        1 MOL      0.309504
    148 H68        -6.6930   -1.3200    0.0450 h1        1 MOL      0.090166
    149 H69        -6.4170   -3.5770   -0.0290 hc        1 MOL      0.073814
    150 H70        -8.0480   -3.4270   -0.4540 hc        1 MOL      0.073814
    151 H71        -7.1130   -3.8020   -1.7300 hc        1 MOL      0.073814
    152 N14        -8.7660   -0.3460   -1.2990 n         1 MOL     -0.507915
    153 C49        -9.2850   -0.5350    0.0060 c3        1 MOL     -0.040219
    154 C50        -9.2250    0.7340    0.7890 c         1 MOL      0.527617
    155 O20        -8.8250    0.6180    1.9490 o         1 MOL     -0.584411
    156 C51       -10.6740   -1.0310   -0.0570 c3        1 MOL      0.014442
    157 C52       -11.8550   -0.2180   -0.6590 c3        1 MOL     -0.009496
    158 C53       -11.6130    0.4720   -2.0280 c         1 MOL      0.649210
    159 O21       -12.2140   -0.0140   -3.0060 o         1 MOL     -0.665011
    160 O22       -10.7920    1.3940   -2.1710 o         1 MOL     -0.665011
    161 H72        -9.2730    0.2610   -1.9260 hn        1 MOL      0.306483
    162 H73        -8.6390   -1.2230    0.5560 h1        1 MOL      0.026090
    163 H74       -10.8750   -1.3060    0.9870 hc        1 MOL      0.017912
    164 H75       -10.7450   -1.9320   -0.6610 hc        1 MOL      0.017912
    165 H76       -12.0950    0.5650    0.0590 hc        1 MOL     -0.028456
    166 H77       -12.6470   -0.9570   -0.7760 hc        1 MOL     -0.028456
    167 N15        -9.4780    1.9670    0.3060 n         1 MOL     -0.237981
    168 C54        -9.3280    3.2630    0.9850 c3        1 MOL     -0.105893
    169 H78        -8.3410    3.6730    0.7700 h1        1 MOL      0.065347
    170 H79       -10.0930    3.9510    0.6260 h1        1 MOL      0.065347
    171 H80        -9.4370    3.1250    2.0610 h1        1 MOL      0.065347
    172 H81        -9.7370    1.9970   -0.6790 hn        1 MOL      0.193108
    173 Ca1         2.1370    0.2510   -0.7180 Ca        1 MOL      1.742117
    174 O23         1.5970    1.6200   -3.1080 oh        1 MOL     -0.880008
    175 H82         1.0450    2.3780   -3.3070 ho        1 MOL      0.422665
    176 H83         1.3550    0.9680   -3.7590 ho        1 MOL      0.422665
    177 O24        -0.6030    0.0690   -1.0300 oh        1 MOL     -0.880008
    178 H84        -0.7410    0.9500   -0.6780 ho        1 MOL      0.422665
    179 H85        -1.4820   -0.2170   -1.3020 ho        1 MOL      0.422665
@<TRIPOS>BOND
     1    1    2 1   
     2    1    4 1   
     3    1    5 1   
     4    1    6 1   
     5    2    3 2   
     6    2    7 1   
     7    7    8 1   
     8    7   15 1   
     9    8    9 1   
    10    8   11 1   
    11    8   16 1   
    12    9   10 2   
    13    9   19 1   
    14   11   12 1   
    15   11   17 1   
    16   11   18 1   
    17   12   13 1   
    18   12   14 1   
    19   19   20 1   
    20   19   28 1   
    21   20   21 1   
    22   20   23 1   
    23   20   29 1   
    24   21   22 2   
    25   21   41 1   
    26   23   24 1   
    27   23   30 1   
    28   23   31 1   
    29   24   25 1   
    30   24   32 1   
    31   24   33 1   
    32   25   26 1   
    33   25   34 1   
    34   25   35 1   
    35   26   27 1   
    36   26   36 1   
    37   26   37 1   
    38   27   38 1   
    39   27   39 1   
    40   27   40 1   
    41   41   42 1   
    42   41   49 1   
    43   42   43 1   
    44   42   45 1   
    45   42   50 1   
    46   43   44 2   
    47   43   53 1   
    48   45   46 1   
    49   45   51 1   
    50   45   52 1   
    51   46   47 1   
    52   46   48 1   
    53   53   54 1   
    54   53   57 1   
    55   54   55 1   
    56   54   58 1   
    57   54   59 1   
    58   55   56 2   
    59   55   60 1   
    60   60   61 1   
    61   60   68 1   
    62   61   62 1   
    63   61   64 1   
    64   61   69 1   
    65   62   63 2   
    66   62   74 1   
    67   64   65 1   
    68   64   70 1   
    69   64   71 1   
    70   65   66 1   
    71   65   67 2   
    72   66   72 1   
    73   66   73 1   
    74   74   75 1   
    75   74   78 1   
    76   75   76 1   
    77   75   79 1   
    78   75   80 1   
    79   76   77 2   
    80   76   81 1   
    81   81   82 1   
    82   81   93 1   
    83   82   83 1   
    84   82   85 1   
    85   82   94 1   
    86   83   84 2   
    87   83  102 1   
    88   85   86 1   
    89   85   95 1   
    90   85   96 1   
    91   86   87 ar  
    92   86   88 ar  
    93   87   89 ar  
    94   87   97 1   
    95   88   90 ar  
    96   88   98 1   
    97   89   91 ar  
    98   89   99 1   
    99   90   91 ar  
   100   90  100 1   
   101   91   92 1   
   102   92  101 1   
   103  102  103 1   
   104  102  110 1   
   105  103  104 1   
   106  103  106 1   
   107  103  111 1   
   108  104  105 2   
   109  104  121 1   
   110  106  107 1   
   111  106  108 1   
   112  106  112 1   
   113  107  109 1   
   114  107  113 1   
   115  107  114 1   
   116  108  115 1   
   117  108  116 1   
   118  108  117 1   
   119  109  118 1   
   120  109  119 1   
   121  109  120 1   
   122  121  122 1   
   123  121  127 1   
   124  122  123 1   
   125  122  125 1   
   126  122  128 1   
   127  123  124 2   
   128  123  132 1   
   129  125  126 1   
   130  125  129 1   
   131  125  130 1   
   132  126  131 1   
   133  132  133 1   
   134  132  137 1   
   135  133  134 1   
   136  133  136 1   
   137  133  138 1   
   138  134  135 2   
   139  134  142 1   
   140  136  139 1   
   141  136  140 1   
   142  136  141 1   
   143  142  143 1   
   144  142  147 1   
   145  143  144 1   
   146  143  146 1   
   147  143  148 1   
   148  144  145 2   
   149  144  152 1   
   150  146  149 1   
   151  146  150 1   
   152  146  151 1   
   153  152  153 1   
   154  152  161 1   
   155  153  154 1   
   156  153  156 1   
   157  153  162 1   
   158  154  155 2   
   159  154  167 1   
   160  156  157 1   
   161  156  163 1   
   162  156  164 1   
   163  157  158 1   
   164  157  165 1   
   165  157  166 1   
   166  158  159 1   
   167  158  160 1   
   168  167  168 1   
   169  167  172 1   
   170  168  169 1   
   171  168  170 1   
   172  168  171 1   
   173  174  175 1   
   174  174  176 1   
   175  177  178 1   
   176  177  179 1   
@<TRIPOS>SUBSTRUCTURE
     1 MOL         1 TEMP              0 ****  ****    0 ROOT
