@<TRIPOS>MOLECULE
MOL
  192   187     1     0     0
SMALL
resp


@<TRIPOS>ATOM
      1 C1         -8.8570    0.3560   -2.6660 c3        1 MOL     -0.583246
      2 C2         -7.8920    0.1340   -1.4760 c         1 MOL      0.774257
      3 O1         -6.6880    0.2160   -1.6200 o         1 MOL     -0.693051
      4 H1         -8.4080   -0.0410   -3.5770 hc        1 MOL      0.145181
      5 H2         -9.7980   -0.1590   -2.4720 hc        1 MOL      0.145181
      6 H3         -9.0440    1.4220   -2.7900 hc        1 MOL      0.145181
      7 N1         -8.4290   -0.2400   -0.3270 n         1 MOL     -0.349852
      8 C3         -7.7660   -0.1070    0.9840 c3        1 MOL     -0.100663
      9 C4         -7.0500   -1.4420    1.3580 c         1 MOL      0.357862
     10 O2         -6.9780   -1.8840    2.5230 o         1 MOL     -0.447223
     11 C5         -8.8370    0.3130    1.9800 c3        1 MOL     -0.100191
     12 C6         -9.9190   -0.7960    2.1670 c         1 MOL      0.648224
     13 O3         -9.9460   -1.3910    3.2530 o         1 MOL     -0.648124
     14 O4        -10.6920   -0.9840    1.2510 o         1 MOL     -0.648124
     15 H4         -9.4250   -0.4070   -0.3150 hn        1 MOL      0.142349
     16 H5         -6.9560    0.6100    0.9280 h1        1 MOL      0.118908
     17 H6         -9.1530    1.3290    1.7790 hc        1 MOL      0.043456
     18 H7         -8.3920    0.4490    2.9650 hc        1 MOL      0.043456
     19 N2         -6.6500   -2.2220    0.3590 n         1 MOL     -0.107139
     20 C7         -6.0470   -3.5210    0.4200 c3        1 MOL     -0.142276
     21 C8         -4.6200   -3.6530    0.7310 c         1 MOL      0.554914
     22 O5         -4.3190   -4.7370    1.1940 o         1 MOL     -0.576167
     23 C9         -6.4960   -4.2640   -0.9100 c3        1 MOL     -0.001283
     24 C10        -8.0500   -4.2700   -1.1190 c3        1 MOL      0.002241
     25 C11        -8.3490   -4.9020   -2.4870 c3        1 MOL     -0.088869
     26 C12        -9.8860   -5.0030   -2.5150 c3        1 MOL      0.182274
     27 N3        -10.3850   -5.8040   -3.7300 n4        1 MOL     -0.371473
     28 H8         -6.7990   -1.8660   -0.5760 hn        1 MOL      0.226798
     29 H9         -6.5350   -3.9910    1.2720 h1        1 MOL      0.141781
     30 H10        -6.1260   -5.2890   -0.9050 hc        1 MOL      0.026371
     31 H11        -6.0430   -3.7550   -1.7600 hc        1 MOL      0.026371
     32 H12        -8.3670   -3.2230   -1.1730 hc        1 MOL      0.028392
     33 H13        -8.5570   -4.8530   -0.3480 hc        1 MOL      0.028392
     34 H14        -7.8610   -5.8790   -2.5090 hc        1 MOL      0.026291
     35 H15        -8.0360   -4.2500   -3.3040 hc        1 MOL      0.026291
     36 H16       -10.3150   -3.9960   -2.5420 hx        1 MOL      0.048736
     37 H17       -10.2210   -5.4970   -1.6040 hx        1 MOL      0.048736
     38 H18       -10.1650   -6.7780   -3.6180 hn        1 MOL      0.295431
     39 H19       -11.3840   -5.6860   -3.8490 hn        1 MOL      0.295431
     40 H20        -9.9670   -5.4440   -4.5800 hn        1 MOL      0.295431
     41 N4         -3.6880   -2.7400    0.6740 n         1 MOL     -0.434811
     42 C13        -3.6250   -1.6060   -0.2750 c3        1 MOL      0.082697
     43 C14        -3.7940   -0.1870    0.3310 c         1 MOL      0.129046
     44 O6         -4.1650   -0.1100    1.4990 o         1 MOL     -0.392782
     45 C15        -2.3380   -1.8710   -1.1520 c3        1 MOL     -0.014075
     46 C16        -1.0860   -2.1960   -0.3980 c         1 MOL      0.364424
     47 O7         -0.7470   -1.5440    0.6050 o         1 MOL     -0.544061
     48 O8         -0.4450   -3.1290   -0.9080 o         1 MOL     -0.544061
     49 H21        -2.8180   -2.9520    1.1360 hn        1 MOL      0.357573
     50 H22        -4.4740   -1.7670   -0.9370 h1        1 MOL      0.066168
     51 H23        -2.1960   -1.0380   -1.8330 hc        1 MOL      0.027715
     52 H24        -2.5980   -2.6130   -1.9040 hc        1 MOL      0.027715
     53 N5         -3.6860    0.8970   -0.3660 n         1 MOL     -0.044900
     54 C17        -3.8050    2.2520    0.1820 c3        1 MOL     -0.157568
     55 C18        -2.5450    2.9530    0.8050 c         1 MOL      0.748048
     56 O9         -1.4690    2.3820    0.6830 o         1 MOL     -0.604576
     57 H25        -3.4410    0.8700   -1.3400 hn        1 MOL      0.176734
     58 H26        -4.5670    2.2460    0.9560 h1        1 MOL      0.074777
     59 H27        -4.1500    2.9350   -0.5950 h1        1 MOL      0.074777
     60 N6         -2.7150    4.1390    1.4870 n         1 MOL     -0.638221
     61 C19        -1.6870    4.8530    2.1680 c3        1 MOL      0.256264
     62 C20        -1.7480    6.3750    1.8820 c         1 MOL      0.432344
     63 O10        -2.8600    6.9700    1.9020 o         1 MOL     -0.533263
     64 C21        -1.7620    4.5190    3.6620 c3        1 MOL     -0.393249
     65 C22        -0.5030    5.0350    4.3260 c         1 MOL      0.757980
     66 O11        -0.4470    6.1110    4.9200 o         1 MOL     -0.698758
     67 O12         0.5110    4.2620    4.2540 o         1 MOL     -0.698758
     68 H28        -3.6920    4.3740    1.6330 hn        1 MOL      0.317942
     69 H29        -0.7330    4.5030    1.7970 h1        1 MOL      0.089552
     70 H30        -1.9350    3.4400    3.7560 hc        1 MOL      0.122234
     71 H31        -2.6890    4.8770    4.1100 hc        1 MOL      0.122234
     72 N7         -0.6910    7.1900    1.6670 n         1 MOL     -0.347464
     73 C23         0.6790    6.7720    1.4940 c3        1 MOL      0.129009
     74 C24         1.0840    6.2130    0.1000 c         1 MOL      0.512842
     75 O13         0.5580    6.6490   -0.9270 o         1 MOL     -0.536096
     76 H32        -0.9200    8.1530    1.4630 hn        1 MOL      0.281640
     77 H33         0.9970    6.0340    2.2290 h1        1 MOL      0.018050
     78 H34         1.3620    7.6140    1.6110 h1        1 MOL      0.018050
     79 N8          2.1540    5.4610    0.0300 n         1 MOL     -0.520228
     80 C25         2.5610    4.6070   -1.1530 c3        1 MOL     -0.094550
     81 C26         1.6790    3.4380   -1.3290 c         1 MOL      1.050017
     82 O14         1.2780    2.7420   -0.4280 o         1 MOL     -0.832510
     83 C27         4.0180    4.2320   -1.0910 c3        1 MOL      0.246284
     84 C28         4.5750    3.2950   -2.1580 c3        1 MOL      0.002407
     85 O15         4.1770    3.3730   -0.0000 oh        1 MOL     -0.568728
     86 H35         2.6630    5.1950    0.8640 hn        1 MOL      0.288603
     87 H36         2.5470    5.2010   -2.0660 h1        1 MOL      0.086003
     88 H37         4.7380    5.0450   -1.0360 h1        1 MOL      0.057552
     89 H38         4.2000    3.9060    0.7940 ho        1 MOL      0.378229
     90 H39         4.2990    2.2420   -2.0920 hc        1 MOL     -0.012424
     91 H40         3.9500    3.7000   -2.9540 hc        1 MOL     -0.012424
     92 H41         5.6220    3.6000   -2.1340 hc        1 MOL     -0.012424
     93 N9          1.3380    3.2290   -2.5680 n         1 MOL     -0.484900
     94 C29         0.4010    2.2160   -3.0340 c3        1 MOL     -0.041615
     95 C30         0.7640    0.8100   -2.5790 c         1 MOL      0.448075
     96 O16         0.1860    0.3360   -1.6290 o         1 MOL     -0.702459
     97 C31        -1.0950    2.6440   -2.7440 c3        1 MOL      0.115850
     98 C32        -1.3670    4.1210   -3.1570 c3        1 MOL     -0.108467
     99 C33        -2.1390    1.6450   -3.3100 c3        1 MOL     -0.485063
    100 C34        -2.6750    4.7660   -2.6010 c3        1 MOL     -0.075195
    101 H42         1.5520    4.0240   -3.1650 hn        1 MOL      0.256662
    102 H43         0.5350    2.2190   -4.1160 h1        1 MOL      0.061103
    103 H44        -1.2780    2.6640   -1.6700 hc        1 MOL      0.063668
    104 H45        -1.4420    4.2050   -4.2400 hc        1 MOL      0.023173
    105 H46        -0.5700    4.7500   -2.7490 hc        1 MOL      0.023173
    106 H47        -2.2690    1.7080   -4.3950 hc        1 MOL      0.144932
    107 H48        -1.8640    0.5940   -3.2080 hc        1 MOL      0.144932
    108 H49        -3.1210    1.7940   -2.8650 hc        1 MOL      0.144932
    109 H50        -2.5610    5.2490   -1.6250 hc        1 MOL      0.033919
    110 H51        -2.9630    5.5590   -3.2850 hc        1 MOL      0.033919
    111 H52        -3.3710    3.9410   -2.4880 hc        1 MOL      0.033919
    112 N10         1.7140    0.1530   -3.2820 n         1 MOL     -0.178130
    113 C35         2.0700   -1.2390   -2.9360 c3        1 MOL      0.007887
    114 C36         3.6320   -1.3580   -2.9580 c         1 MOL      0.409768
    115 O17         4.1650   -2.4530   -2.8700 o         1 MOL     -0.537093
    116 C37         1.3420   -2.1880   -3.9280 c3        1 MOL      0.392154
    117 C38         1.4530   -1.7670   -5.3890 c3        1 MOL     -0.145913
    118 O18        -0.0000   -2.3080   -3.5360 oh        1 MOL     -0.536229
    119 H53         2.1440    0.5670   -4.0980 hn        1 MOL      0.217239
    120 H54         1.7270   -1.4880   -1.9340 h1        1 MOL      0.105747
    121 H55         1.8060   -3.1670   -3.8030 h1        1 MOL     -0.012844
    122 H56         0.0870   -2.5690   -2.6190 ho        1 MOL      0.284702
    123 H57         2.4910   -1.5120   -5.5830 hc        1 MOL      0.020891
    124 H58         1.0450   -2.5080   -6.0810 hc        1 MOL      0.020891
    125 H59         0.9380   -0.8110   -5.4960 hc        1 MOL      0.020891
    126 N11         4.4540   -0.2350   -2.9190 n         1 MOL     -0.044608
    127 C39         5.9190   -0.4100   -3.0410 c3        1 MOL     -0.150152
    128 C40         6.5200   -0.6670   -1.6810 c         1 MOL      0.601661
    129 O19         6.9600    0.2520   -0.9440 o         1 MOL     -0.515125
    130 C41         6.4880    0.7230   -3.9250 c3        1 MOL      0.492023
    131 C42         7.8850    0.4370   -4.4460 c3        1 MOL     -0.291594
    132 O20         5.6660    0.9650   -5.0280 oh        1 MOL     -0.673359
    133 H60         4.1310    0.7140   -3.0540 hn        1 MOL      0.085865
    134 H61         6.1370   -1.3630   -3.5410 h1        1 MOL      0.084384
    135 H62         6.3970    1.6460   -3.3500 h1        1 MOL     -0.113324
    136 H63         6.0240    1.7590   -5.4280 ho        1 MOL      0.413820
    137 H64         8.0640    0.7950   -5.4550 hc        1 MOL      0.078098
    138 H65         8.5780    1.0000   -3.8200 hc        1 MOL      0.078098
    139 H66         8.1220   -0.6230   -4.3170 hc        1 MOL      0.078098
    140 N12         6.4140   -1.9580   -1.1930 n         1 MOL     -0.649827
    141 C43         6.5010   -2.4410    0.1810 c3        1 MOL      0.180313
    142 C44         5.3720   -1.9080    1.0370 c         1 MOL      0.646926
    143 O21         5.1110   -0.7430    0.9040 o         1 MOL     -0.514661
    144 C45         7.8800   -2.2040    0.7890 c3        1 MOL     -0.610196
    145 C46         9.0050   -2.8430    0.0650 c3        1 MOL      0.043811
    146 C47        10.4510   -2.7410    0.7270 c3        1 MOL     -0.044772
    147 C48        11.4170   -3.6380   -0.0470 c3        1 MOL      0.029370
    148 N13        12.7490   -3.7130    0.6380 n4        1 MOL     -0.181224
    149 H67         6.0420   -2.6010   -1.8810 hn        1 MOL      0.322514
    150 H68         6.4440   -3.5250    0.1090 h1        1 MOL      0.053630
    151 H69         7.8580   -2.6690    1.7760 hc        1 MOL      0.203302
    152 H70         8.0640   -1.1300    0.7940 hc        1 MOL      0.203302
    153 H71         9.0740   -2.3250   -0.8940 hc        1 MOL      0.057401
    154 H72         8.7660   -3.9030    0.0110 hc        1 MOL      0.057401
    155 H73        10.5170   -3.0580    1.7650 hc        1 MOL      0.052600
    156 H74        10.6910   -1.6850    0.7090 hc        1 MOL      0.052600
    157 H75        11.4280   -3.3040   -1.0870 hx        1 MOL      0.055312
    158 H76        10.9360   -4.6120    0.0380 hx        1 MOL      0.055312
    159 H77        12.6860   -4.1230    1.5570 hn        1 MOL      0.219940
    160 H78        13.3960   -4.2750    0.1080 hn        1 MOL      0.219940
    161 H79        13.1470   -2.7860    0.6560 hn        1 MOL      0.219940
    162 N14         4.8790   -2.7740    1.8850 n         1 MOL     -0.523646
    163 C49         3.7980   -2.4860    2.8370 c3        1 MOL      0.092774
    164 C50         2.4560   -2.4550    2.0990 c         1 MOL      0.515937
    165 O22         1.8060   -1.4030    2.2130 o         1 MOL     -0.686482
    166 C51         3.7670   -3.5000    3.9880 c3        1 MOL      0.301541
    167 C52         4.9490   -3.4280    4.9750 c3        1 MOL     -0.359997
    168 C53         4.7530   -4.2820    6.1150 c         1 MOL      0.701172
    169 O23         4.4180   -3.8950    7.2610 o         1 MOL     -0.625003
    170 O24         4.7070   -5.5400    5.9090 o         1 MOL     -0.625003
    171 H80         5.3450   -3.6700    1.9270 hn        1 MOL      0.338290
    172 H81         4.0480   -1.5330    3.3080 h1        1 MOL      0.045999
    173 H82         3.6830   -4.4640    3.4940 hc        1 MOL     -0.024733
    174 H83         2.7950   -3.3080    4.4470 hc        1 MOL     -0.024733
    175 H84         4.8410   -2.3770    5.2400 hc        1 MOL      0.039363
    176 H85         5.8830   -3.7290    4.4920 hc        1 MOL      0.039363
    177 N15         1.9180   -3.3910    1.2450 n         1 MOL     -0.399839
    178 C54         2.4640   -4.7070    0.9670 c3        1 MOL      0.129116
    179 H86         3.5530   -4.6560    0.9730 h1        1 MOL     -0.004649
    180 H87         2.1290   -5.4090    1.7320 h1        1 MOL     -0.004649
    181 H88         2.1220   -5.0440   -0.0110 h1        1 MOL     -0.004649
    182 H89         0.9570   -3.2050    0.9830 hn        1 MOL      0.342050
    183 Ca1         0.6080    0.6290    1.0400 Ca        1 MOL      1.890053
    184 O25         1.7030    2.6390    2.3990 oh        1 MOL     -0.982386
    185 H90         1.2720    3.2410    2.9930 ho        1 MOL      0.446052
    186 H91         2.5950    2.5460    2.7570 ho        1 MOL      0.446052
    187 O26         3.1840    0.7080    0.0730 oh        1 MOL     -0.982386
    188 H92         3.5280    1.5970   -0.0460 ho        1 MOL      0.446052
    189 H93         3.9520    0.1790    0.2930 ho        1 MOL      0.446052
    190 O27        -1.2980    0.6290    2.9820 oh        1 MOL     -0.982386
    191 H94        -0.9450    0.4300    3.8540 ho        1 MOL      0.446052
    192 H95        -2.2260    0.7910    3.1300 ho        1 MOL      0.446052
@<TRIPOS>BOND
     1    1    2 1   
     2    1    4 1   
     3    1    5 1   
     4    1    6 1   
     5    2    3 2   
     6    2    7 1   
     7    7    8 1   
     8    7   15 1   
     9    8    9 1   
    10    8   11 1   
    11    8   16 1   
    12    9   10 2   
    13    9   19 1   
    14   11   12 1   
    15   11   17 1   
    16   11   18 1   
    17   12   13 1   
    18   12   14 1   
    19   19   20 1   
    20   19   28 1   
    21   20   21 1   
    22   20   23 1   
    23   20   29 1   
    24   21   22 2   
    25   21   41 1   
    26   23   24 1   
    27   23   30 1   
    28   23   31 1   
    29   24   25 1   
    30   24   32 1   
    31   24   33 1   
    32   25   26 1   
    33   25   34 1   
    34   25   35 1   
    35   26   27 1   
    36   26   36 1   
    37   26   37 1   
    38   27   38 1   
    39   27   39 1   
    40   27   40 1   
    41   41   42 1   
    42   41   49 1   
    43   42   43 1   
    44   42   45 1   
    45   42   50 1   
    46   43   44 2   
    47   43   53 1   
    48   45   46 1   
    49   45   51 1   
    50   45   52 1   
    51   46   47 1   
    52   46   48 1   
    53   53   54 1   
    54   53   57 1   
    55   54   55 1   
    56   54   58 1   
    57   54   59 1   
    58   55   56 2   
    59   55   60 1   
    60   60   61 1   
    61   60   68 1   
    62   61   62 1   
    63   61   64 1   
    64   61   69 1   
    65   62   63 2   
    66   62   72 1   
    67   64   65 1   
    68   64   70 1   
    69   64   71 1   
    70   65   66 1   
    71   65   67 1   
    72   72   73 1   
    73   72   76 1   
    74   73   74 1   
    75   73   77 1   
    76   73   78 1   
    77   74   75 2   
    78   74   79 1   
    79   79   80 1   
    80   79   86 1   
    81   80   81 1   
    82   80   83 1   
    83   80   87 1   
    84   81   82 2   
    85   81   93 1   
    86   83   84 1   
    87   83   85 1   
    88   83   88 1   
    89   84   90 1   
    90   84   91 1   
    91   84   92 1   
    92   85   89 1   
    93   93   94 1   
    94   93  101 1   
    95   94   95 1   
    96   94   97 1   
    97   94  102 1   
    98   95   96 2   
    99   95  112 1   
   100   97   98 1   
   101   97   99 1   
   102   97  103 1   
   103   98  100 1   
   104   98  104 1   
   105   98  105 1   
   106   99  106 1   
   107   99  107 1   
   108   99  108 1   
   109  100  109 1   
   110  100  110 1   
   111  100  111 1   
   112  112  113 1   
   113  112  119 1   
   114  113  114 1   
   115  113  116 1   
   116  113  120 1   
   117  114  115 2   
   118  114  126 1   
   119  116  117 1   
   120  116  118 1   
   121  116  121 1   
   122  117  123 1   
   123  117  124 1   
   124  117  125 1   
   125  118  122 1   
   126  126  127 1   
   127  126  133 1   
   128  127  128 1   
   129  127  130 1   
   130  127  134 1   
   131  128  129 2   
   132  128  140 1   
   133  130  131 1   
   134  130  132 1   
   135  130  135 1   
   136  131  137 1   
   137  131  138 1   
   138  131  139 1   
   139  132  136 1   
   140  140  141 1   
   141  140  149 1   
   142  141  142 1   
   143  141  144 1   
   144  141  150 1   
   145  142  143 2   
   146  142  162 1   
   147  144  145 1   
   148  144  151 1   
   149  144  152 1   
   150  145  146 1   
   151  145  153 1   
   152  145  154 1   
   153  146  147 1   
   154  146  155 1   
   155  146  156 1   
   156  147  148 1   
   157  147  157 1   
   158  147  158 1   
   159  148  159 1   
   160  148  160 1   
   161  148  161 1   
   162  162  163 1   
   163  162  171 1   
   164  163  164 1   
   165  163  166 1   
   166  163  172 1   
   167  164  165 2   
   168  164  177 1   
   169  166  167 1   
   170  166  173 1   
   171  166  174 1   
   172  167  168 1   
   173  167  175 1   
   174  167  176 1   
   175  168  169 1   
   176  168  170 1   
   177  177  178 1   
   178  177  182 1   
   179  178  179 1   
   180  178  180 1   
   181  178  181 1   
   182  184  185 1   
   183  184  186 1   
   184  187  188 1   
   185  187  189 1   
   186  190  191 1   
   187  190  192 1   
@<TRIPOS>SUBSTRUCTURE
     1 MOL         1 TEMP              0 ****  ****    0 ROOT
