@<TRIPOS>MOLECULE
MOL
  181   177     1     0     0
SMALL
resp


@<TRIPOS>ATOM
      1 C1          6.2250   -4.4380    5.4520 c3        1 MOL     -0.234703
      2 C2          5.6810   -3.5440    4.3110 c         1 MOL      0.590782
      3 O1          4.9090   -2.6260    4.5680 o         1 MOL     -0.555086
      4 H1          5.9210   -4.0250    6.4130 hc        1 MOL      0.047453
      5 H2          5.8230   -5.4460    5.3470 hc        1 MOL      0.047453
      6 H3          7.3130   -4.4730    5.3990 hc        1 MOL      0.047453
      7 N1          6.0060   -3.7040    3.0650 n         1 MOL     -0.282448
      8 C3          6.9490   -4.5930    2.4340 c3        1 MOL      0.007020
      9 C4          6.3730   -5.1220    1.1020 c         1 MOL      0.405902
     10 O2          5.2010   -5.0120    0.8430 o         1 MOL     -0.441154
     11 C5          8.3150   -3.8220    2.2490 c3        1 MOL     -0.279972
     12 C6          8.2670   -2.4960    1.5020 c         1 MOL      0.600547
     13 O3          8.5150   -2.4220    0.2580 o         1 MOL     -0.590017
     14 O4          8.0210   -1.4000    2.0350 o         1 MOL     -0.590017
     15 H4          5.3530   -3.2500    2.4540 hn        1 MOL      0.270565
     16 H5          7.1850   -5.4840    3.0100 h1        1 MOL      0.066216
     17 H6          9.0300   -4.4450    1.7180 hc        1 MOL      0.061975
     18 H7          8.6320   -3.5510    3.2650 hc        1 MOL      0.061975
     19 N2          7.2810   -5.4980    0.1900 n         1 MOL     -0.461525
     20 C7          7.0110   -5.7280   -1.2040 c3        1 MOL      0.659093
     21 C8          6.1410   -4.7280   -2.0010 c         1 MOL      0.040935
     22 O5          5.4840   -5.0090   -2.9930 o         1 MOL     -0.510469
     23 C9          6.4820   -7.1670   -1.3680 c3        1 MOL     -0.511731
     24 H8          8.2390   -5.5830    0.5000 hn        1 MOL      0.284858
     25 H9          7.9870   -5.7780   -1.6840 h1        1 MOL     -0.062533
     26 H10         6.8410   -7.6210   -2.3000 hc        1 MOL      0.112259
     27 H11         6.9690   -7.7400   -0.5830 hc        1 MOL      0.112259
     28 H12         5.3900   -7.1660   -1.4270 hc        1 MOL      0.112259
     29 N3          6.1220   -3.4960   -1.5080 n         1 MOL      0.653492
     30 C10         5.2570   -2.3890   -2.0710 c3        1 MOL     -0.191287
     31 C11         6.1590   -1.3320   -2.7390 c         1 MOL      0.458175
     32 O6          7.3630   -1.2260   -2.5350 o         1 MOL     -0.524125
     33 C12         4.3420   -1.8500   -0.9940 c3        1 MOL      0.127243
     34 C13         5.1820   -1.3110    0.1880 c         1 MOL      0.531258
     35 O7          5.9650   -0.3840   -0.0500 o         1 MOL     -0.583453
     36 O8          4.9520   -1.7190    1.3340 o         1 MOL     -0.583453
     37 H13         6.6790   -3.2750   -0.6990 hn        1 MOL     -0.632519
     38 H14         4.6060   -2.7130   -2.8830 h1        1 MOL      0.056688
     39 H15         3.7010   -2.6570   -0.6260 hc        1 MOL      0.008225
     40 H16         3.6360   -1.1140   -1.3690 hc        1 MOL      0.008225
     41 N4          5.5540   -0.5470   -3.7060 n         1 MOL     -0.396998
     42 C14         6.1680    0.7020   -4.1860 c3        1 MOL     -0.159361
     43 C15         6.2190    1.6530   -2.9480 c         1 MOL      0.252607
     44 O9          6.9630    1.4470   -1.9660 o         1 MOL     -0.489327
     45 H17         4.5430   -0.5930   -3.7310 hn        1 MOL      0.323307
     46 H18         5.6430    0.9940   -5.0890 h1        1 MOL      0.133257
     47 H19         7.1770    0.4880   -4.5400 h1        1 MOL      0.133257
     48 N5          5.3810    2.7090   -2.8980 n         1 MOL     -0.197725
     49 C16         5.1610    3.6710   -1.7800 c3        1 MOL      0.175919
     50 C17         3.6450    3.8280   -1.6170 c         1 MOL      0.531775
     51 O10         2.7700    3.5920   -2.4970 o         1 MOL     -0.518559
     52 C18         5.7560    5.0260   -2.1450 c3        1 MOL     -0.361777
     53 C19         5.6930    6.0930   -1.0780 c         1 MOL      0.735661
     54 N6          5.9020    7.3040   -1.5130 n         1 MOL     -0.857095
     55 O11         5.4200    5.8900    0.0630 o         1 MOL     -0.512021
     56 H20         4.7060    2.8640   -3.6340 hn        1 MOL      0.203648
     57 H21         5.6400    3.3390   -0.8560 h1        1 MOL      0.054910
     58 H22         5.2060    5.4100   -3.0050 hc        1 MOL      0.076837
     59 H23         6.7870    4.8990   -2.4780 hc        1 MOL      0.076837
     60 H24         6.3020    7.4120   -2.4390 hn        1 MOL      0.378580
     61 H25         5.6530    8.1710   -1.0750 hn        1 MOL      0.378580
     62 N7          3.2250    4.1610   -0.4030 n         1 MOL     -0.626622
     63 C20         1.8670    4.5370    0.0220 c3        1 MOL      0.421498
     64 C21         1.3260    5.8950   -0.4700 c         1 MOL      0.496614
     65 O12         1.9880    6.5600   -1.2690 o         1 MOL     -0.524304
     66 H26         4.0130    4.4960    0.1460 hn        1 MOL      0.298361
     67 H27         2.0430    4.7310    1.0820 h1        1 MOL     -0.020683
     68 H28         1.1790    3.6920   -0.0250 h1        1 MOL     -0.020683
     69 N8          0.1360    6.3240   -0.0400 n         1 MOL     -0.556583
     70 C22        -0.7000    5.8040    1.0970 c3        1 MOL     -0.023294
     71 C23        -1.3220    4.4240    0.8750 c         1 MOL      0.572709
     72 O13        -1.4550    4.0960   -0.3060 o         1 MOL     -0.544807
     73 C24        -1.6750    6.9460    1.4670 c3        1 MOL      0.471887
     74 C25        -2.9460    7.0990    0.6090 c3        1 MOL     -0.402903
     75 O14        -2.2030    6.7650    2.8220 oh        1 MOL     -0.708388
     76 H29        -0.0900    7.1970   -0.4950 hn        1 MOL      0.307875
     77 H30        -0.0550    5.7300    1.9650 h1        1 MOL      0.052972
     78 H31        -1.1500    7.8970    1.5800 h1        1 MOL     -0.038760
     79 H32        -2.9510    7.3570    2.9530 ho        1 MOL      0.426739
     80 H33        -2.7430    7.8920   -0.1180 hc        1 MOL      0.105025
     81 H34        -3.1460    6.1910    0.0470 hc        1 MOL      0.105025
     82 H35        -3.8570    7.3560    1.1540 hc        1 MOL      0.105025
     83 N9         -1.7020    3.8260    1.9270 n         1 MOL     -0.492075
     84 C26        -2.4570    2.5410    2.0410 c3        1 MOL      0.029525
     85 C27        -3.6720    2.7070    2.8800 c         1 MOL      0.741830
     86 O15        -3.5720    3.1730    4.0150 o         1 MOL     -0.593363
     87 C28        -1.6250    1.2700    2.4980 c3        1 MOL      0.041434
     88 C29        -0.2680    1.1400    1.7140 c3        1 MOL     -0.066489
     89 C30        -2.5410    0.0130    2.3480 c3        1 MOL     -0.096790
     90 C31        -0.4300    0.9550    0.1870 c3        1 MOL      0.046744
     91 H36        -1.2130    4.1690    2.7420 hn        1 MOL      0.302603
     92 H37        -2.7300    2.2250    1.0340 h1        1 MOL      0.117269
     93 H38        -1.3170    1.4970    3.5140 hc        1 MOL      0.003966
     94 H39         0.3460    0.3550    2.1510 hc        1 MOL      0.007209
     95 H40         0.2700    2.0830    1.7470 hc        1 MOL      0.007209
     96 H41        -1.9800   -0.8950    2.1130 hc        1 MOL      0.030249
     97 H42        -3.1010   -0.1680    3.2760 hc        1 MOL      0.030249
     98 H43        -3.2380    0.1480    1.5240 hc        1 MOL      0.030249
     99 H44        -0.7170    1.8610   -0.3460 hc        1 MOL     -0.000936
    100 H45         0.4710    0.6000   -0.3090 hc        1 MOL     -0.000936
    101 H46        -1.1630    0.1620   -0.0320 hc        1 MOL     -0.000936
    102 N10        -4.8150    2.1300    2.5170 n         1 MOL     -0.803609
    103 C32        -5.3520    2.1030    1.1390 c3        1 MOL      0.368223
    104 C33        -6.5170    1.1040    0.9380 c         1 MOL      0.488429
    105 O16        -7.1220    0.7050    1.9610 o         1 MOL     -0.510936
    106 C34        -5.8860    3.4710    0.7780 c3        1 MOL     -0.184910
    107 C35        -6.9460    4.0780    1.7390 c         1 MOL      0.777094
    108 O17        -6.9780    3.8640    2.9520 o         1 MOL     -0.736577
    109 O18        -7.7490    4.7980    1.0910 o         1 MOL     -0.736577
    110 H47        -5.5750    2.1940    3.1790 hn        1 MOL      0.417547
    111 H48        -4.5570    1.8350    0.4380 h1        1 MOL     -0.044479
    112 H49        -6.2800    3.3800   -0.2330 hc        1 MOL      0.012618
    113 H50        -5.0710    4.1550    0.5780 hc        1 MOL      0.012618
    114 N11        -6.9440    0.8110   -0.2980 n         1 MOL     -0.741136
    115 C36        -8.1310    0.0700   -0.6620 c3        1 MOL      0.563522
    116 C37        -7.8760   -0.7610   -2.0010 c         1 MOL      0.011993
    117 O19        -7.3130   -0.1840   -2.9480 o         1 MOL     -0.442817
    118 C38        -9.2310    1.0430   -0.8050 c3        1 MOL     -0.222460
    119 C39       -10.5260    0.3900   -1.2820 ca        1 MOL      0.031923
    120 C40       -10.7860    0.2110   -2.6800 ca        1 MOL     -0.133794
    121 C41       -11.5300   -0.0230   -0.3650 ca        1 MOL     -0.133794
    122 C42       -11.9610   -0.4590   -3.0570 ca        1 MOL     -0.116664
    123 C43       -12.7060   -0.6030   -0.7860 ca        1 MOL     -0.116664
    124 C44       -12.9370   -0.8220   -2.1040 ca        1 MOL     -0.122361
    125 H51        -6.2230    0.9870   -0.9840 hn        1 MOL      0.375986
    126 H52        -8.3880   -0.6660    0.0990 h1        1 MOL     -0.062069
    127 H53        -9.0020    1.8170   -1.5410 hc        1 MOL      0.098904
    128 H54        -9.3930    1.5080    0.1670 hc        1 MOL      0.098904
    129 H55       -10.0710    0.5560   -3.4110 ha        1 MOL      0.125640
    130 H56       -11.4180    0.1110    0.6960 ha        1 MOL      0.125640
    131 H57       -12.1090   -0.5050   -4.1280 ha        1 MOL      0.092235
    132 H58       -13.3600   -0.9920   -0.0180 ha        1 MOL      0.092235
    133 H59       -13.8590   -1.2960   -2.3980 ha        1 MOL      0.084847
    134 N12        -8.2550   -2.0450   -2.0320 n         1 MOL      0.354251
    135 C45        -8.8140   -2.8770   -0.9650 c3        1 MOL     -0.001226
    136 C46        -7.8870   -3.1210    0.2450 c         1 MOL      0.566377
    137 O20        -8.3230   -3.2010    1.3290 o         1 MOL     -0.545335
    138 C47        -9.2680   -4.1280   -1.6770 c3        1 MOL      0.099642
    139 C48        -9.4760   -3.7480   -3.1180 c3        1 MOL      0.070367
    140 C49        -8.3040   -2.7600   -3.2920 c3        1 MOL     -0.343087
    141 H60        -9.6760   -2.3540   -0.5500 h1        1 MOL     -0.022057
    142 H61        -8.4220   -4.8000   -1.5460 hc        1 MOL     -0.012195
    143 H62       -10.2130   -4.5520   -1.3460 hc        1 MOL     -0.012195
    144 H63        -9.4170   -4.6970   -3.6440 hc        1 MOL     -0.023568
    145 H64       -10.4520   -3.2870   -3.2700 hc        1 MOL     -0.023568
    146 H65        -7.3800   -3.3290   -3.4520 h1        1 MOL      0.114132
    147 H66        -8.5120   -2.0370   -4.0820 h1        1 MOL      0.114132
    148 N13        -6.6120   -3.3500   -0.0650 n         1 MOL     -0.470017
    149 C50        -5.7290   -4.0400    0.9010 c3        1 MOL      0.348572
    150 C51        -6.3300   -5.3550    1.4090 c         1 MOL      0.286277
    151 O21        -6.6200   -6.2120    0.5970 o         1 MOL     -0.552633
    152 C52        -4.3640   -4.4150    0.3020 c3        1 MOL      0.073060
    153 C53        -3.5070   -3.2060   -0.1630 c3        1 MOL     -0.250765
    154 C54        -3.7440   -2.9700   -1.6060 c         1 MOL      0.810787
    155 O22        -3.2000   -3.6330   -2.4910 o         1 MOL     -0.694970
    156 O23        -4.4050   -2.0050   -1.9880 o         1 MOL     -0.694970
    157 H67        -6.2300   -3.2210   -0.9970 hn        1 MOL      0.202903
    158 H68        -5.4840   -3.3440    1.7000 h1        1 MOL      0.007462
    159 H69        -4.4210   -5.1320   -0.5200 hc        1 MOL     -0.017684
    160 H70        -3.8830   -4.9130    1.1450 hc        1 MOL     -0.017684
    161 H71        -2.5080   -3.6400   -0.1330 hc        1 MOL      0.031838
    162 H72        -3.6950   -2.3790    0.5170 hc        1 MOL      0.031838
    163 N14        -6.7100   -5.4720    2.6550 n         1 MOL     -0.248550
    164 C55        -6.8170   -4.4690    3.6740 c3        1 MOL     -0.203814
    165 H73        -5.8750   -4.4060    4.2200 h1        1 MOL      0.090398
    166 H74        -7.0350   -3.5050    3.2150 h1        1 MOL      0.090398
    167 H75        -7.6190   -4.7350    4.3620 h1        1 MOL      0.090398
    168 H76        -7.1270   -6.3660    2.8730 hn        1 MOL      0.251516
    169 Ca1         8.4590    0.1000   -0.2000 Ca        1 MOL      1.657205
    170 O24         8.2710    1.9890    1.7720 oh        1 MOL     -0.775159
    171 H77         8.7090    2.1560    2.6070 ho        1 MOL      0.367506
    172 H78         8.3730    2.8140    1.2890 ho        1 MOL      0.367506
    173 O25         9.9770    2.1970   -0.5370 oh        1 MOL     -0.775159
    174 H79        10.9320    2.2820   -0.4690 ho        1 MOL      0.367506
    175 H80         9.7630    2.6200   -1.3660 ho        1 MOL      0.367506
    176 O26        10.6260    0.2060    1.5680 oh        1 MOL     -0.775159
    177 H81        11.5380   -0.0920    1.6490 ho        1 MOL      0.367506
    178 H82        10.6580    1.1290    1.7930 ho        1 MOL      0.367506
    179 O27        10.2150   -0.3510   -2.2660 oh        1 MOL     -0.775159
    180 H83        11.1570   -0.3850   -2.4570 ho        1 MOL      0.367506
    181 H84         9.8050   -0.3550   -3.1300 ho        1 MOL      0.367506
@<TRIPOS>BOND
     1    1    2 1   
     2    1    4 1   
     3    1    5 1   
     4    1    6 1   
     5    2    3 2   
     6    2    7 1   
     7    7    8 1   
     8    7   15 1   
     9    8    9 1   
    10    8   11 1   
    11    8   16 1   
    12    9   10 2   
    13    9   19 1   
    14   11   12 1   
    15   11   17 1   
    16   11   18 1   
    17   12   13 1   
    18   12   14 1   
    19   19   20 1   
    20   19   24 1   
    21   20   21 1   
    22   20   23 1   
    23   20   25 1   
    24   21   22 2   
    25   21   29 1   
    26   23   26 1   
    27   23   27 1   
    28   23   28 1   
    29   29   30 1   
    30   29   37 1   
    31   30   31 1   
    32   30   33 1   
    33   30   38 1   
    34   31   32 2   
    35   31   41 1   
    36   33   34 1   
    37   33   39 1   
    38   33   40 1   
    39   34   35 1   
    40   34   36 1   
    41   41   42 1   
    42   41   45 1   
    43   42   43 1   
    44   42   46 1   
    45   42   47 1   
    46   43   44 2   
    47   43   48 1   
    48   48   49 1   
    49   48   56 1   
    50   49   50 1   
    51   49   52 1   
    52   49   57 1   
    53   50   51 2   
    54   50   62 1   
    55   52   53 1   
    56   52   58 1   
    57   52   59 1   
    58   53   54 1   
    59   53   55 2   
    60   54   60 1   
    61   54   61 1   
    62   62   63 1   
    63   62   66 1   
    64   63   64 1   
    65   63   67 1   
    66   63   68 1   
    67   64   65 2   
    68   64   69 1   
    69   69   70 1   
    70   69   76 1   
    71   70   71 1   
    72   70   73 1   
    73   70   77 1   
    74   71   72 2   
    75   71   83 1   
    76   73   74 1   
    77   73   75 1   
    78   73   78 1   
    79   74   80 1   
    80   74   81 1   
    81   74   82 1   
    82   75   79 1   
    83   83   84 1   
    84   83   91 1   
    85   84   85 1   
    86   84   87 1   
    87   84   92 1   
    88   85   86 2   
    89   85  102 1   
    90   87   88 1   
    91   87   89 1   
    92   87   93 1   
    93   88   90 1   
    94   88   94 1   
    95   88   95 1   
    96   89   96 1   
    97   89   97 1   
    98   89   98 1   
    99   90   99 1   
   100   90  100 1   
   101   90  101 1   
   102  102  103 1   
   103  102  110 1   
   104  103  104 1   
   105  103  106 1   
   106  103  111 1   
   107  104  105 2   
   108  104  114 1   
   109  106  107 1   
   110  106  112 1   
   111  106  113 1   
   112  107  108 1   
   113  107  109 1   
   114  114  115 1   
   115  114  125 1   
   116  115  116 1   
   117  115  118 1   
   118  115  126 1   
   119  116  117 2   
   120  116  134 1   
   121  118  119 1   
   122  118  127 1   
   123  118  128 1   
   124  119  120 ar  
   125  119  121 ar  
   126  120  122 ar  
   127  120  129 1   
   128  121  123 ar  
   129  121  130 1   
   130  122  124 ar  
   131  122  131 1   
   132  123  124 ar  
   133  123  132 1   
   134  124  133 1   
   135  134  135 1   
   136  134  140 1   
   137  135  136 1   
   138  135  138 1   
   139  135  141 1   
   140  136  137 2   
   141  136  148 1   
   142  138  139 1   
   143  138  142 1   
   144  138  143 1   
   145  139  140 1   
   146  139  144 1   
   147  139  145 1   
   148  140  146 1   
   149  140  147 1   
   150  148  149 1   
   151  148  157 1   
   152  149  150 1   
   153  149  152 1   
   154  149  158 1   
   155  150  151 2   
   156  150  163 1   
   157  152  153 1   
   158  152  159 1   
   159  152  160 1   
   160  153  154 1   
   161  153  161 1   
   162  153  162 1   
   163  154  155 1   
   164  154  156 1   
   165  163  164 1   
   166  163  168 1   
   167  164  165 1   
   168  164  166 1   
   169  164  167 1   
   170  170  171 1   
   171  170  172 1   
   172  173  174 1   
   173  173  175 1   
   174  176  177 1   
   175  176  178 1   
   176  179  180 1   
   177  179  181 1   
@<TRIPOS>SUBSTRUCTURE
     1 MOL         1 TEMP              0 ****  ****    0 ROOT
