@<TRIPOS>MOLECULE
MOL
  192   187     1     0     0
SMALL
resp


@<TRIPOS>ATOM
      1 C1         -0.4080   -4.2020    3.4290 c3        1 MOL     -0.302815
      2 C2          0.4060   -4.0110    2.0930 c         1 MOL      0.683960
      3 O1          1.1440   -3.0260    2.0020 o         1 MOL     -0.519708
      4 H1          0.1180   -3.7130    4.2480 hc        1 MOL      0.050094
      5 H2         -1.3980   -3.7590    3.3190 hc        1 MOL      0.050094
      6 H3         -0.5080   -5.2660    3.6460 hc        1 MOL      0.050094
      7 N1          0.1700   -4.8640    1.1080 n         1 MOL     -0.556959
      8 C3          0.6390   -4.7530   -0.2200 c3        1 MOL     -0.050950
      9 C4          2.2270   -4.5650   -0.3180 c         1 MOL      0.890629
     10 O2          2.6750   -3.8050   -1.1420 o         1 MOL     -0.572261
     11 C5         -0.1880   -3.7680   -1.0930 c3        1 MOL     -0.715287
     12 C6         -1.7430   -4.0690   -1.1350 c         1 MOL      1.302811
     13 O3         -2.1560   -5.2520   -0.9860 o         1 MOL     -0.921048
     14 O4         -2.5560   -3.1670   -1.3510 o         1 MOL     -0.921048
     15 H4         -0.4100   -5.6660    1.2860 hn        1 MOL      0.291583
     16 H5          0.5140   -5.7470   -0.6470 h1        1 MOL      0.103180
     17 H6          0.2500   -3.7540   -2.0920 hc        1 MOL      0.205248
     18 H7         -0.0570   -2.8210   -0.5640 hc        1 MOL      0.205248
     19 N2          3.0330   -5.3400    0.4050 n         1 MOL     -0.905028
     20 C7          4.4770   -5.2080    0.4820 c3        1 MOL      0.204449
     21 C8          5.2740   -6.0150   -0.5310 c         1 MOL      0.672721
     22 O5          4.8820   -6.9360   -1.1740 o         1 MOL     -0.616599
     23 C9          4.9500   -5.4880    1.9810 c3        1 MOL      0.177515
     24 C10         4.9770   -6.9500    2.4780 c3        1 MOL     -0.093058
     25 C11         4.1210   -4.6950    2.9490 c3        1 MOL     -0.260102
     26 C12         6.2400   -7.6950    2.0000 c3        1 MOL     -0.052976
     27 H8          2.6370   -6.0930    0.9510 hn        1 MOL      0.385901
     28 H9          4.6830   -4.1580    0.2420 h1        1 MOL      0.105708
     29 H10         5.8950   -4.9420    1.9810 hc        1 MOL      0.021829
     30 H11         4.0680   -7.4080    2.0780 hc        1 MOL      0.007388
     31 H12         5.1050   -6.9630    3.5620 hc        1 MOL      0.007388
     32 H13         4.0190   -3.6760    2.5820 hc        1 MOL      0.056488
     33 H14         3.1150   -5.1030    3.0200 hc        1 MOL      0.056488
     34 H15         4.6000   -4.7240    3.9360 hc        1 MOL      0.056488
     35 H16         6.1210   -8.7430    2.2800 hc        1 MOL      0.007249
     36 H17         6.4720   -7.5520    0.9400 hc        1 MOL      0.007249
     37 H18         7.1350   -7.2890    2.4760 hc        1 MOL      0.007249
     38 N3          6.5040   -5.5780   -0.8510 n         1 MOL     -0.581663
     39 C13         7.3220   -4.3620   -0.3420 c3        1 MOL      0.287937
     40 C14         6.6160   -3.0210   -0.7130 c         1 MOL      0.253148
     41 O6          6.7350   -1.9950   -0.0800 o         1 MOL     -0.431460
     42 C15         8.7350   -4.4600   -0.9980 c3        1 MOL     -0.368319
     43 C16         9.5750   -3.1950   -0.7800 c         1 MOL      0.839276
     44 O7          9.6800   -2.8370    0.3520 o         1 MOL     -0.739581
     45 O8         10.1800   -2.6940   -1.7650 o         1 MOL     -0.739581
     46 H19         7.0160   -6.2510   -1.3960 hn        1 MOL      0.296581
     47 H20         7.3050   -4.3930    0.7440 h1        1 MOL     -0.012644
     48 H21         8.6420   -4.7280   -2.0500 hc        1 MOL      0.039672
     49 H22         9.1250   -5.3280   -0.4720 hc        1 MOL      0.039672
     50 N4          5.8520   -3.0510   -1.7860 n         1 MOL     -0.172583
     51 C17         5.0250   -1.9760   -2.3930 c3        1 MOL     -0.244588
     52 C18         5.8520   -0.6890   -2.5730 c         1 MOL      0.462654
     53 O9          7.0790   -0.6780   -2.7430 o         1 MOL     -0.470544
     54 H23         5.6860   -3.9690   -2.1560 hn        1 MOL      0.199483
     55 H24         4.1900   -1.7990   -1.7000 h1        1 MOL      0.133910
     56 H25         4.6830   -2.3530   -3.3540 h1        1 MOL      0.133910
     57 N5          5.1790    0.4580   -2.5820 n         1 MOL     -0.404322
     58 C19         5.6380    1.7930   -2.9790 c3        1 MOL      0.287040
     59 C20         6.3470    2.6340   -1.8700 c         1 MOL      0.298169
     60 O10         7.0790    3.6060   -2.1300 o         1 MOL     -0.511103
     61 C21         4.5410    2.7350   -3.6060 c3        1 MOL     -0.573629
     62 C22         3.2480    2.7320   -2.7160 c         1 MOL      0.864299
     63 O11         2.1280    2.9520   -3.1980 o         1 MOL     -0.710506
     64 O12         3.2540    2.5890   -1.4770 o         1 MOL     -0.710506
     65 H26         4.1910    0.3550   -2.4070 hn        1 MOL      0.228164
     66 H27         6.4330    1.7020   -3.7210 h1        1 MOL      0.032099
     67 H28         4.2090    2.2380   -4.5270 hc        1 MOL      0.127577
     68 H29         4.9380    3.7090   -3.8570 hc        1 MOL      0.127577
     69 N6          6.1010    2.2490   -0.5820 n         1 MOL     -0.068913
     70 C23         6.4590    2.8800    0.6210 c3        1 MOL     -0.150252
     71 C24         5.6530    4.1940    0.9180 c         1 MOL      0.375546
     72 O13         6.0270    4.9740    1.8130 o         1 MOL     -0.574116
     73 H30         5.7600    1.3390   -0.3270 hn        1 MOL      0.207216
     74 H31         7.5120    3.1530    0.5720 h1        1 MOL      0.084044
     75 H32         6.4150    2.1900    1.4580 h1        1 MOL      0.084044
     76 N7          4.5530    4.4000    0.1430 n         1 MOL      0.316286
     77 C25         3.6930    5.5900    0.1610 c3        1 MOL      0.005217
     78 C26         3.0450    5.9880    1.5620 c         1 MOL      0.466457
     79 O14         2.9730    7.1800    1.8960 o         1 MOL     -0.511171
     80 C27         4.3460    6.8320   -0.5390 c3        1 MOL     -0.130052
     81 C28         5.2100    6.5510   -1.8640 c3        1 MOL     -0.167883
     82 C29         5.6640    7.8310   -2.6350 c         1 MOL      0.654224
     83 N8          6.2810    7.6880   -3.7530 n         1 MOL     -0.780936
     84 O15         5.4040    8.9610   -2.2480 o         1 MOL     -0.581867
     85 H33         4.3110    3.7370   -0.5800 hn        1 MOL     -0.129701
     86 H34         2.8360    5.1840   -0.3900 h1        1 MOL      0.088285
     87 H35         4.9650    7.3400    0.2130 hc        1 MOL      0.054388
     88 H36         3.5620    7.5600   -0.7560 hc        1 MOL      0.054388
     89 H37         4.6990    5.8490   -2.5110 hc        1 MOL      0.068711
     90 H38         6.0540    5.8970   -1.6430 hc        1 MOL      0.068711
     91 H39         6.5920    6.7900   -4.1000 hn        1 MOL      0.346245
     92 H40         6.4260    8.4930   -4.3370 hn        1 MOL      0.346245
     93 N9          2.7830    4.9440    2.3220 n         1 MOL     -0.362590
     94 C30         2.0930    4.9100    3.6640 c3        1 MOL     -0.088217
     95 C31         0.9000    3.9540    3.6630 c         1 MOL      0.733397
     96 O16         0.1080    4.0920    4.5730 o         1 MOL     -0.618291
     97 C32         3.0540    4.7680    4.8860 c3        1 MOL      0.477992
     98 C33         3.8170    3.4350    4.7720 c3        1 MOL     -0.535745
     99 C34         3.9900    5.8780    4.9870 c3        1 MOL     -0.535745
    100 H41         3.1680    4.0880    1.9350 hn        1 MOL      0.073970
    101 H42         1.6430    5.8800    3.8520 h1        1 MOL      0.066234
    102 H43         2.4230    4.7010    5.7740 hc        1 MOL     -0.056520
    103 H44         3.0360    2.6740    4.6650 hc        1 MOL      0.126609
    104 H45         4.3880    3.4570    3.8440 hc        1 MOL      0.126609
    105 H46         4.3810    3.2690    5.6920 hc        1 MOL      0.126609
    106 H47         4.3380    5.7410    6.0090 hc        1 MOL      0.126609
    107 H48         4.7830    5.8950    4.2400 hc        1 MOL      0.126609
    108 H49         3.4540    6.8260    4.9230 hc        1 MOL      0.126609
    109 N10         0.9200    2.8780    2.8520 n         1 MOL     -0.788685
    110 C35        -0.2520    1.9770    2.6110 c3        1 MOL      0.415075
    111 C36        -0.8360    2.1760    1.1640 c         1 MOL      0.479251
    112 O17        -0.3000    2.9580    0.3730 o         1 MOL     -0.493033
    113 C37         0.0760    0.5000    2.9460 c3        1 MOL     -0.234510
    114 C38        -1.0740   -0.3030    3.4820 c         1 MOL      0.626581
    115 N11        -1.0810   -0.5540    4.7920 n         1 MOL     -0.782858
    116 O18        -2.0120   -0.6900    2.8100 o         1 MOL     -0.522895
    117 H50         1.7810    2.6990    2.3630 hn        1 MOL      0.424598
    118 H51        -1.1620    2.2320    3.1370 h1        1 MOL      0.015720
    119 H52         0.9080    0.3910    3.6400 hc        1 MOL      0.075092
    120 H53         0.3870   -0.0400    2.0540 hc        1 MOL      0.075092
    121 H54        -0.3720   -0.2110    5.4270 hn        1 MOL      0.359353
    122 H55        -1.6590   -1.2970    5.1450 hn        1 MOL      0.359353
    123 N12        -1.9090    1.4630    0.9240 n         1 MOL     -0.510118
    124 C39        -2.7950    1.6530   -0.2740 c3        1 MOL     -0.051132
    125 C40        -4.3100    1.6960    0.1830 c         1 MOL      0.893241
    126 O19        -4.7090    0.7520    0.8530 o         1 MOL     -0.615611
    127 C41        -2.4380    0.5460   -1.2640 c3        1 MOL     -0.140940
    128 C42        -3.5060    0.4480   -2.2770 ca        1 MOL      0.068530
    129 C43        -4.5110   -0.4590   -2.1170 ca        1 MOL     -0.146212
    130 C44        -3.4100    1.3090   -3.3790 ca        1 MOL     -0.146212
    131 C45        -5.4620   -0.6100   -3.2050 ca        1 MOL     -0.180082
    132 C46        -4.3010    1.0380   -4.4530 ca        1 MOL     -0.180082
    133 C47        -5.2970    0.0980   -4.3780 ca        1 MOL      0.309639
    134 O20        -6.0870   -0.1210   -5.4090 oh        1 MOL     -0.564382
    135 H56        -2.2450    0.7600    1.5600 hn        1 MOL      0.251997
    136 H57        -2.5390    2.5970   -0.7490 h1        1 MOL      0.108901
    137 H58        -2.2430   -0.4000   -0.7760 hc        1 MOL      0.115285
    138 H59        -1.4500    0.6760   -1.7260 hc        1 MOL      0.115285
    139 H60        -4.6870   -1.0500   -1.2330 ha        1 MOL      0.128455
    140 H61        -2.7240    2.1360   -3.4200 ha        1 MOL      0.128455
    141 H62        -6.3610   -1.2110   -3.1360 ha        1 MOL      0.103930
    142 H63        -4.2730    1.7240   -5.2890 ha        1 MOL      0.103930
    143 H64        -6.8960   -0.5790   -5.1580 ho        1 MOL      0.404055
    144 N13        -5.0110    2.7970   -0.0910 n         1 MOL     -0.946324
    145 C48        -6.4650    2.9420    0.0970 c3        1 MOL      0.589329
    146 C49        -7.2490    2.4280   -1.1700 c         1 MOL      0.353757
    147 O21        -7.2520    3.0100   -2.2110 o         1 MOL     -0.497937
    148 C50        -6.9490    4.3120    0.4970 c3        1 MOL      0.204906
    149 C51        -8.4590    4.3510    0.6970 c3        1 MOL     -0.443541
    150 C52        -9.2890    4.8240   -0.4650 c         1 MOL      0.719920
    151 O22       -10.1480    4.0850   -1.0060 o         1 MOL     -0.682004
    152 O23        -9.1030    5.9640   -0.9770 o         1 MOL     -0.682004
    153 H65        -4.5560    3.6450   -0.4070 hn        1 MOL      0.360478
    154 H66        -6.7170    2.2550    0.9080 h1        1 MOL     -0.152879
    155 H67        -6.6120    5.0720   -0.2140 hc        1 MOL     -0.044620
    156 H68        -6.4850    4.5970    1.4420 hc        1 MOL     -0.044620
    157 H69        -8.6250    5.0140    1.5450 hc        1 MOL      0.087881
    158 H70        -8.8530    3.4220    1.1020 hc        1 MOL      0.087881
    159 N14        -8.0280    1.3500   -1.2050 n         1 MOL     -0.391292
    160 C53        -8.1040    0.1220   -0.3660 c3        1 MOL     -0.105186
    161 C54        -8.7980    0.3390    0.9930 c         1 MOL      0.507232
    162 O24        -9.9540    0.6730    1.1090 o         1 MOL     -0.521559
    163 C55        -8.7940   -0.9760   -1.1510 c3        1 MOL      0.204986
    164 C56        -8.6020   -2.3220   -0.4570 c3        1 MOL     -0.271259
    165 C57        -7.1180   -2.9300   -0.6260 c         1 MOL      0.581893
    166 O25        -6.9860   -3.9920   -1.2790 o         1 MOL     -0.642800
    167 O26        -6.1670   -2.4850    0.0340 o         1 MOL     -0.642800
    168 H71        -8.5160    1.2950   -2.0870 hn        1 MOL      0.304610
    169 H72        -7.0860   -0.1650   -0.1050 h1        1 MOL      0.109647
    170 H73        -8.3040   -1.1090   -2.1200 hc        1 MOL     -0.023224
    171 H74        -9.8500   -0.7230   -1.2560 hc        1 MOL     -0.023224
    172 H75        -9.3840   -3.0080   -0.8040 hc        1 MOL      0.043160
    173 H76        -8.8160   -2.2880    0.6130 hc        1 MOL      0.043160
    174 N15        -8.0240    0.0990    2.1130 n         1 MOL     -0.180902
    175 C58        -8.4500    0.1440    3.5570 c3        1 MOL     -0.142936
    176 H77        -7.6390    0.5480    4.1620 h1        1 MOL      0.063396
    177 H78        -9.3300    0.7820    3.6570 h1        1 MOL      0.063396
    178 H79        -8.6900   -0.8640    3.8970 h1        1 MOL      0.063396
    179 H80        -7.2240   -0.5070    1.9810 hn        1 MOL      0.195050
    180 Ca1        -4.5040   -4.5030   -0.1670 Ca        1 MOL      1.741881
    181 O27        -4.5070   -4.8160   -2.9160 oh        1 MOL     -0.872419
    182 H81        -4.7080   -5.7270   -3.1180 ho        1 MOL      0.407395
    183 H82        -3.7350   -4.6170   -3.4350 ho        1 MOL      0.407395
    184 O28        -2.7700   -3.2600    1.4510 oh        1 MOL     -0.872419
    185 H83        -2.1870   -2.4920    1.3810 ho        1 MOL      0.407395
    186 H84        -3.0500   -3.2580    2.3660 ho        1 MOL      0.407395
    187 O29        -5.4070   -4.6560    2.3310 oh        1 MOL     -0.872419
    188 H85        -5.1050   -3.9640    2.9180 ho        1 MOL      0.407395
    189 H86        -5.7760   -5.3180    2.9270 ho        1 MOL      0.407395
    190 O30        -6.1420   -6.6930   -0.1260 oh        1 MOL     -0.872419
    191 H87        -6.1520   -7.4910    0.3990 ho        1 MOL      0.407395
    192 H88        -6.8980   -6.7980   -0.7190 ho        1 MOL      0.407395
@<TRIPOS>BOND
     1    1    2 1   
     2    1    4 1   
     3    1    5 1   
     4    1    6 1   
     5    2    3 2   
     6    2    7 1   
     7    7    8 1   
     8    7   15 1   
     9    8    9 1   
    10    8   11 1   
    11    8   16 1   
    12    9   10 2   
    13    9   19 1   
    14   11   12 1   
    15   11   17 1   
    16   11   18 1   
    17   12   13 1   
    18   12   14 1   
    19   19   20 1   
    20   19   27 1   
    21   20   21 1   
    22   20   23 1   
    23   20   28 1   
    24   21   22 2   
    25   21   38 1   
    26   23   24 1   
    27   23   25 1   
    28   23   29 1   
    29   24   26 1   
    30   24   30 1   
    31   24   31 1   
    32   25   32 1   
    33   25   33 1   
    34   25   34 1   
    35   26   35 1   
    36   26   36 1   
    37   26   37 1   
    38   38   39 1   
    39   38   46 1   
    40   39   40 1   
    41   39   42 1   
    42   39   47 1   
    43   40   41 2   
    44   40   50 1   
    45   42   43 1   
    46   42   48 1   
    47   42   49 1   
    48   43   44 1   
    49   43   45 1   
    50   50   51 1   
    51   50   54 1   
    52   51   52 1   
    53   51   55 1   
    54   51   56 1   
    55   52   53 2   
    56   52   57 1   
    57   57   58 1   
    58   57   65 1   
    59   58   59 1   
    60   58   61 1   
    61   58   66 1   
    62   59   60 2   
    63   59   69 1   
    64   61   62 1   
    65   61   67 1   
    66   61   68 1   
    67   62   63 1   
    68   62   64 1   
    69   69   70 1   
    70   69   73 1   
    71   70   71 1   
    72   70   74 1   
    73   70   75 1   
    74   71   72 2   
    75   71   76 1   
    76   76   77 1   
    77   76   85 1   
    78   77   78 1   
    79   77   80 1   
    80   77   86 1   
    81   78   79 2   
    82   78   93 1   
    83   80   81 1   
    84   80   87 1   
    85   80   88 1   
    86   81   82 1   
    87   81   89 1   
    88   81   90 1   
    89   82   83 1   
    90   82   84 2   
    91   83   91 1   
    92   83   92 1   
    93   93   94 1   
    94   93  100 1   
    95   94   95 1   
    96   94   97 1   
    97   94  101 1   
    98   95   96 2   
    99   95  109 1   
   100   97   98 1   
   101   97   99 1   
   102   97  102 1   
   103   98  103 1   
   104   98  104 1   
   105   98  105 1   
   106   99  106 1   
   107   99  107 1   
   108   99  108 1   
   109  109  110 1   
   110  109  117 1   
   111  110  111 1   
   112  110  113 1   
   113  110  118 1   
   114  111  112 2   
   115  111  123 1   
   116  113  114 1   
   117  113  119 1   
   118  113  120 1   
   119  114  115 1   
   120  114  116 2   
   121  115  121 1   
   122  115  122 1   
   123  123  124 1   
   124  123  135 1   
   125  124  125 1   
   126  124  127 1   
   127  124  136 1   
   128  125  126 2   
   129  125  144 1   
   130  127  128 1   
   131  127  137 1   
   132  127  138 1   
   133  128  129 ar  
   134  128  130 ar  
   135  129  131 ar  
   136  129  139 1   
   137  130  132 ar  
   138  130  140 1   
   139  131  133 ar  
   140  131  141 1   
   141  132  133 ar  
   142  132  142 1   
   143  133  134 1   
   144  134  143 1   
   145  144  145 1   
   146  144  153 1   
   147  145  146 1   
   148  145  148 1   
   149  145  154 1   
   150  146  147 2   
   151  146  159 1   
   152  148  149 1   
   153  148  155 1   
   154  148  156 1   
   155  149  150 1   
   156  149  157 1   
   157  149  158 1   
   158  150  151 1   
   159  150  152 1   
   160  159  160 1   
   161  159  168 1   
   162  160  161 1   
   163  160  163 1   
   164  160  169 1   
   165  161  162 2   
   166  161  174 1   
   167  163  164 1   
   168  163  170 1   
   169  163  171 1   
   170  164  165 1   
   171  164  172 1   
   172  164  173 1   
   173  165  166 1   
   174  165  167 1   
   175  174  175 1   
   176  174  179 1   
   177  175  176 1   
   178  175  177 1   
   179  175  178 1   
   180  181  182 1   
   181  181  183 1   
   182  184  185 1   
   183  184  186 1   
   184  187  188 1   
   185  187  189 1   
   186  190  191 1   
   187  190  192 1   
@<TRIPOS>SUBSTRUCTURE
     1 MOL         1 TEMP              0 ****  ****    0 ROOT
