@<TRIPOS>MOLECULE
MOL
  175   173     1     0     0
SMALL
resp


@<TRIPOS>ATOM
      1 C1         -6.8710    7.6370    1.4970 c3        1 MOL     -0.312164
      2 C2         -7.8140    6.6890    0.7320 c         1 MOL      0.656772
      3 O1         -8.0380    6.8360   -0.4540 o         1 MOL     -0.559019
      4 H1         -7.3430    7.9440    2.4310 hc        1 MOL      0.068844
      5 H2         -5.9350    7.1220    1.7160 hc        1 MOL      0.068844
      6 H3         -6.6670    8.5180    0.8880 hc        1 MOL      0.068844
      7 N1         -8.4570    5.7640    1.4550 n         1 MOL     -0.497565
      8 C3         -9.4340    4.9860    0.7080 c3        1 MOL      0.169039
      9 C4         -8.8300    3.8240   -0.2330 c         1 MOL      0.599945
     10 O2         -9.4620    3.4650   -1.2170 o         1 MOL     -0.552100
     11 C5        -10.4860    4.4220    1.7110 c3        1 MOL     -0.272098
     12 C6        -11.8310    4.0360    1.1180 c         1 MOL      0.746669
     13 O3        -12.3140    4.7760    0.2020 o         1 MOL     -0.735008
     14 O4        -12.4900    3.1330    1.6130 o         1 MOL     -0.735008
     15 H4         -8.3420    5.6820    2.4540 hn        1 MOL      0.290023
     16 H5         -9.9100    5.6310   -0.0330 h1        1 MOL      0.042831
     17 H6        -10.5820    5.0960    2.5650 hc        1 MOL      0.023819
     18 H7         -9.9900    3.5620    2.1320 hc        1 MOL      0.023819
     19 N2         -7.5830    3.4560    0.0150 n         1 MOL     -0.552835
     20 C7         -6.7190    2.6070   -0.8370 c3        1 MOL      0.348032
     21 C8         -5.5240    2.1360   -0.0180 c         1 MOL      0.514288
     22 O5         -5.0030    2.8090    0.8960 o         1 MOL     -0.525483
     23 C9         -6.3290    3.4370   -2.0400 c3        1 MOL     -0.356929
     24 H8         -7.2040    3.7160    0.9150 hn        1 MOL      0.217781
     25 H9         -7.4000    1.7920   -1.0940 h1        1 MOL      0.008171
     26 H10        -5.6620    4.2520   -1.7560 hc        1 MOL      0.102945
     27 H11        -5.9510    2.7560   -2.8090 hc        1 MOL      0.102945
     28 H12        -7.2490    3.8660   -2.4320 hc        1 MOL      0.102945
     29 N3         -4.9090    0.9390   -0.3070 n         1 MOL     -0.566675
     30 C10        -5.1570    0.0410   -1.4550 c3        1 MOL      0.029970
     31 C11        -5.3690   -1.4320   -1.0510 c         1 MOL      0.574394
     32 O6         -5.0060   -1.8140    0.0610 o         1 MOL     -0.546282
     33 C12        -3.8870    0.1690   -2.2690 c3        1 MOL     -0.034037
     34 C13        -2.6770   -0.4090   -1.6820 c         1 MOL      0.762834
     35 O7         -2.0830   -1.2890   -2.3530 o         1 MOL     -0.761462
     36 O8         -2.0790    0.0560   -0.6830 o         1 MOL     -0.761462
     37 H13        -4.0710    0.7580    0.2200 hn        1 MOL      0.347948
     38 H14        -6.0390    0.3480   -2.0210 h1        1 MOL      0.057908
     39 H15        -3.8160    1.2270   -2.4970 hc        1 MOL     -0.007172
     40 H16        -4.0450   -0.2990   -3.2410 hc        1 MOL     -0.007172
     41 N4         -5.9630   -2.2460   -1.9340 n         1 MOL     -0.464417
     42 C14        -6.5190   -3.5260   -1.4730 c3        1 MOL      0.013842
     43 C15        -6.2000   -4.6620   -2.4520 c         1 MOL      0.571517
     44 O9         -6.8890   -4.8220   -3.4580 o         1 MOL     -0.546114
     45 H17        -6.2490   -1.9170   -2.8410 hn        1 MOL      0.310692
     46 H18        -7.6030   -3.4780   -1.5100 h1        1 MOL      0.071255
     47 H19        -6.2730   -3.8000   -0.4480 h1        1 MOL      0.071255
     48 N5         -5.0760   -5.4080   -2.2540 n         1 MOL     -0.592841
     49 C16        -3.9240   -4.8880   -1.4670 c3        1 MOL      0.160244
     50 C17        -3.8880   -5.6160   -0.0760 c         1 MOL      0.439137
     51 O10        -4.2400   -6.8290    0.1070 o         1 MOL     -0.560971
     52 C18        -2.5900   -5.1270   -2.2650 c3        1 MOL      0.010311
     53 C19        -1.3200   -4.5990   -1.5700 c         1 MOL      0.490529
     54 N6         -0.1440   -4.8990   -2.1570 n         1 MOL     -0.725554
     55 O11        -1.3460   -3.7280   -0.7150 o         1 MOL     -0.512581
     56 H20        -4.7860   -6.0400   -2.9860 hn        1 MOL      0.328205
     57 H21        -4.0050   -3.8240   -1.2550 h1        1 MOL      0.007675
     58 H22        -2.6090   -4.5630   -3.1920 hc        1 MOL      0.023781
     59 H23        -2.4080   -6.1670   -2.5480 hc        1 MOL      0.023781
     60 H24        -0.1710   -5.6060   -2.8690 hn        1 MOL      0.348459
     61 H25         0.6810   -4.3920   -1.8870 hn        1 MOL      0.348459
     62 N7         -3.4510   -4.9130    0.9210 n         1 MOL     -0.201542
     63 C20        -3.3350   -5.3020    2.3090 c3        1 MOL     -0.156048
     64 C21        -1.9330   -5.3440    2.8130 c         1 MOL      0.520839
     65 O12        -1.7470   -5.6780    3.9880 o         1 MOL     -0.574261
     66 H26        -2.9910   -4.0240    0.7660 hn        1 MOL      0.214284
     67 H27        -3.7750   -6.2850    2.4230 h1        1 MOL      0.113517
     68 H28        -3.9540   -4.6360    2.9230 h1        1 MOL      0.113517
     69 N8         -0.8850   -4.9860    2.0370 n         1 MOL     -0.181893
     70 C22         0.5830   -5.0810    2.3460 c3        1 MOL     -0.231706
     71 C23         1.4610   -3.8500    2.0200 c         1 MOL      0.686626
     72 O13         1.0440   -2.9590    1.3150 o         1 MOL     -0.602395
     73 C24         1.2940   -6.2460    1.6360 c3        1 MOL      0.387067
     74 C25         0.8500   -7.6280    2.1350 c3        1 MOL     -0.331361
     75 O14         0.9540   -6.2230    0.2780 oh        1 MOL     -0.640467
     76 H29        -1.0140   -4.5900    1.1140 hn        1 MOL      0.206673
     77 H30         0.7940   -5.0720    3.4170 h1        1 MOL      0.093051
     78 H31         2.3800   -6.1990    1.7490 h1        1 MOL     -0.024078
     79 H32         1.7320   -5.8510   -0.1550 ho        1 MOL      0.454036
     80 H33         1.2720   -7.7510    3.1340 hc        1 MOL      0.081249
     81 H34        -0.2410   -7.6070    2.1660 hc        1 MOL      0.081249
     82 H35         1.1800   -8.4890    1.5430 hc        1 MOL      0.081249
     83 N9          2.6660   -3.6900    2.6020 n         1 MOL     -0.464774
     84 C26         3.5800   -2.5790    2.3380 c3        1 MOL      0.020587
     85 C27         4.4700   -2.8440    1.0850 c         1 MOL      0.415707
     86 O15         5.2600   -3.8170    1.0220 o         1 MOL     -0.534978
     87 C28         4.4550   -2.2700    3.5690 c3        1 MOL      0.088396
     88 C29         5.4630   -1.1090    3.2860 c3        1 MOL      0.132401
     89 C30         3.5080   -1.8580    4.7440 c3        1 MOL     -0.508794
     90 C31         4.9680    0.2850    2.7760 c3        1 MOL     -0.193494
     91 H36         2.8750   -4.2570    3.4110 hn        1 MOL      0.287451
     92 H37         3.0270   -1.6620    2.1310 h1        1 MOL      0.106778
     93 H38         4.9620   -3.1910    3.8420 hc        1 MOL      0.011193
     94 H39         6.2120   -1.4140    2.5630 hc        1 MOL     -0.030633
     95 H40         6.0370   -1.0000    4.2060 hc        1 MOL     -0.030633
     96 H41         4.0580   -1.6890    5.6730 hc        1 MOL      0.132971
     97 H42         3.0420   -0.8930    4.5530 hc        1 MOL      0.132971
     98 H43         2.7570   -2.6520    4.8160 hc        1 MOL      0.132971
     99 H44         4.6440    0.1770    1.7400 hc        1 MOL      0.042263
    100 H45         4.2190    0.7640    3.4060 hc        1 MOL      0.042263
    101 H46         5.8170    0.9560    2.9280 hc        1 MOL      0.042263
    102 N10         4.3390   -1.9550    0.0530 n         1 MOL     -0.294234
    103 C32         4.9760   -2.3110   -1.2950 c3        1 MOL      0.207965
    104 C33         5.8930   -1.1210   -1.7210 c         1 MOL      0.456288
    105 O16         6.6460   -1.2210   -2.6710 o         1 MOL     -0.544637
    106 C34         3.9270   -2.6720   -2.3950 c3        1 MOL     -0.473312
    107 C35         2.8050   -3.5640   -1.8070 c         1 MOL      0.832539
    108 O17         2.9110   -4.7750   -1.5170 o         1 MOL     -0.715682
    109 O18         1.7350   -2.9550   -1.6090 o         1 MOL     -0.715682
    110 H47         3.7440   -1.1490    0.0630 hn        1 MOL      0.200237
    111 H48         5.6710   -3.1490   -1.2250 h1        1 MOL      0.076789
    112 H49         4.4870   -3.1440   -3.2090 hc        1 MOL      0.112251
    113 H50         3.5470   -1.7220   -2.7640 hc        1 MOL      0.112251
    114 N11         5.9590    0.0020   -0.9830 n         1 MOL     -0.447299
    115 C36         6.8960    1.0410   -1.2030 c3        1 MOL      0.401900
    116 C37         6.4190    2.4490   -0.8100 c         1 MOL      0.267806
    117 O19         6.0980    2.6270    0.3460 o         1 MOL     -0.458469
    118 C38         8.0610    0.6650   -0.3340 c3        1 MOL     -0.420155
    119 C39         9.1290    1.7280   -0.2700 ca        1 MOL      0.182002
    120 C40         9.3380    2.5120    0.8580 ca        1 MOL     -0.186980
    121 C41         9.8370    2.0540   -1.4730 ca        1 MOL     -0.186980
    122 C42        10.3110    3.4870    0.8080 ca        1 MOL     -0.100422
    123 C43        10.7000    3.1340   -1.5070 ca        1 MOL     -0.100422
    124 C44        10.9900    3.8220   -0.3530 ca        1 MOL     -0.131556
    125 H51         5.5060   -0.0420   -0.0790 hn        1 MOL      0.250923
    126 H52         7.2440    1.0930   -2.2310 h1        1 MOL     -0.022791
    127 H53         8.4040   -0.2770   -0.7670 hc        1 MOL      0.131990
    128 H54         7.7030    0.4930    0.6860 hc        1 MOL      0.131990
    129 H55         8.7130    2.3510    1.7240 ha        1 MOL      0.132425
    130 H56         9.6110    1.4460   -2.3360 ha        1 MOL      0.132425
    131 H57        10.4280    4.1140    1.6780 ha        1 MOL      0.100039
    132 H58        11.0500    3.4130   -2.4940 ha        1 MOL      0.100039
    133 H59        11.6350    4.6890   -0.3800 ha        1 MOL      0.103696
    134 N12         6.2910    3.4590   -1.7470 n         1 MOL     -0.033602
    135 C45         5.9720    4.8940   -1.4060 c3        1 MOL     -0.004173
    136 C46         4.7440    5.1990   -0.5110 c         1 MOL      0.495791
    137 O20         4.7680    6.2990    0.0810 o         1 MOL     -0.553465
    138 C47         5.9410    5.6500   -2.7950 c3        1 MOL     -0.146746
    139 C48         5.6460    4.4840   -3.7330 c3        1 MOL      0.140240
    140 C49         6.3410    3.2440   -3.1600 c3        1 MOL     -0.380636
    141 H60         6.7320    5.4940   -0.9040 h1        1 MOL      0.070763
    142 H61         5.0970    6.3260   -2.9340 hc        1 MOL      0.070691
    143 H62         6.8800    6.1810   -2.9780 hc        1 MOL      0.070691
    144 H63         4.5820    4.2280   -3.7260 hc        1 MOL     -0.008453
    145 H64         5.9690    4.7260   -4.7460 hc        1 MOL     -0.008453
    146 H65         5.7490    2.3920   -3.5060 h1        1 MOL      0.149991
    147 H66         7.3450    3.3000   -3.5860 h1        1 MOL      0.149991
    148 N13         3.7940    4.3090   -0.2270 n         1 MOL     -0.290818
    149 C50         2.5260    4.5620    0.4320 c3        1 MOL     -0.231655
    150 C51         2.5040    5.0890    1.8410 c         1 MOL      0.491247
    151 O21         1.4470    5.4500    2.3920 o         1 MOL     -0.524670
    152 C52         1.6620    3.3210    0.3170 c3        1 MOL     -0.200617
    153 C53         2.1480    2.0520    1.1690 c3        1 MOL     -0.205690
    154 C54         1.5720    0.7110    0.7700 c         1 MOL      0.666025
    155 O22         2.2690   -0.0830    0.0550 o         1 MOL     -0.668954
    156 O23         0.4580    0.3140    1.1980 o         1 MOL     -0.668954
    157 H67         3.9830    3.3620   -0.5220 hn        1 MOL      0.270937
    158 H68         2.0830    5.3750   -0.1460 h1        1 MOL      0.172142
    159 H69         1.6630    2.9670   -0.7160 hc        1 MOL      0.121237
    160 H70         0.6400    3.6310    0.5360 hc        1 MOL      0.121237
    161 H71         1.9470    2.2160    2.2260 hc        1 MOL      0.083417
    162 H72         3.2110    1.9560    0.9800 hc        1 MOL      0.083417
    163 N14         3.6460    5.2880    2.4340 n         1 MOL     -0.218573
    164 C55         3.8090    6.1320    3.6320 c3        1 MOL     -0.073660
    165 H73         2.8280    6.4160    4.0130 h1        1 MOL      0.063737
    166 H74         4.3490    5.5760    4.3980 h1        1 MOL      0.063737
    167 H75         4.3700    7.0300    3.3710 h1        1 MOL      0.063737
    168 H76         4.4520    4.9320    1.9340 hn        1 MOL      0.228709
    169 Ca1         0.0400   -1.4700   -0.5350 Ca        1 MOL      1.713716
    170 O24         0.5070   -0.2040   -2.8090 oh        1 MOL     -0.864056
    171 H77         1.1810   -0.1180   -3.4790 ho        1 MOL      0.410633
    172 H78        -0.2950   -0.3640   -3.3010 ho        1 MOL      0.410633
    173 O25        -2.1460   -1.7550    1.3010 oh        1 MOL     -0.864056
    174 H79        -3.0790   -1.8730    1.1010 ho        1 MOL      0.410633
    175 H80        -2.0760   -0.8290    1.5340 ho        1 MOL      0.410633
@<TRIPOS>BOND
     1    1    2 1   
     2    1    4 1   
     3    1    5 1   
     4    1    6 1   
     5    2    3 2   
     6    2    7 1   
     7    7    8 1   
     8    7   15 1   
     9    8    9 1   
    10    8   11 1   
    11    8   16 1   
    12    9   10 2   
    13    9   19 1   
    14   11   12 1   
    15   11   17 1   
    16   11   18 1   
    17   12   13 1   
    18   12   14 1   
    19   19   20 1   
    20   19   24 1   
    21   20   21 1   
    22   20   23 1   
    23   20   25 1   
    24   21   22 2   
    25   21   29 1   
    26   23   26 1   
    27   23   27 1   
    28   23   28 1   
    29   29   30 1   
    30   29   37 1   
    31   30   31 1   
    32   30   33 1   
    33   30   38 1   
    34   31   32 2   
    35   31   41 1   
    36   33   34 1   
    37   33   39 1   
    38   33   40 1   
    39   34   35 1   
    40   34   36 1   
    41   41   42 1   
    42   41   45 1   
    43   42   43 1   
    44   42   46 1   
    45   42   47 1   
    46   43   44 2   
    47   43   48 1   
    48   48   49 1   
    49   48   56 1   
    50   49   50 1   
    51   49   52 1   
    52   49   57 1   
    53   50   51 2   
    54   50   62 1   
    55   52   53 1   
    56   52   58 1   
    57   52   59 1   
    58   53   54 1   
    59   53   55 2   
    60   54   60 1   
    61   54   61 1   
    62   62   63 1   
    63   62   66 1   
    64   63   64 1   
    65   63   67 1   
    66   63   68 1   
    67   64   65 2   
    68   64   69 1   
    69   69   70 1   
    70   69   76 1   
    71   70   71 1   
    72   70   73 1   
    73   70   77 1   
    74   71   72 2   
    75   71   83 1   
    76   73   74 1   
    77   73   75 1   
    78   73   78 1   
    79   74   80 1   
    80   74   81 1   
    81   74   82 1   
    82   75   79 1   
    83   83   84 1   
    84   83   91 1   
    85   84   85 1   
    86   84   87 1   
    87   84   92 1   
    88   85   86 2   
    89   85  102 1   
    90   87   88 1   
    91   87   89 1   
    92   87   93 1   
    93   88   90 1   
    94   88   94 1   
    95   88   95 1   
    96   89   96 1   
    97   89   97 1   
    98   89   98 1   
    99   90   99 1   
   100   90  100 1   
   101   90  101 1   
   102  102  103 1   
   103  102  110 1   
   104  103  104 1   
   105  103  106 1   
   106  103  111 1   
   107  104  105 2   
   108  104  114 1   
   109  106  107 1   
   110  106  112 1   
   111  106  113 1   
   112  107  108 1   
   113  107  109 1   
   114  114  115 1   
   115  114  125 1   
   116  115  116 1   
   117  115  118 1   
   118  115  126 1   
   119  116  117 2   
   120  116  134 1   
   121  118  119 1   
   122  118  127 1   
   123  118  128 1   
   124  119  120 ar  
   125  119  121 ar  
   126  120  122 ar  
   127  120  129 1   
   128  121  123 ar  
   129  121  130 1   
   130  122  124 ar  
   131  122  131 1   
   132  123  124 ar  
   133  123  132 1   
   134  124  133 1   
   135  134  135 1   
   136  134  140 1   
   137  135  136 1   
   138  135  138 1   
   139  135  141 1   
   140  136  137 2   
   141  136  148 1   
   142  138  139 1   
   143  138  142 1   
   144  138  143 1   
   145  139  140 1   
   146  139  144 1   
   147  139  145 1   
   148  140  146 1   
   149  140  147 1   
   150  148  149 1   
   151  148  157 1   
   152  149  150 1   
   153  149  152 1   
   154  149  158 1   
   155  150  151 2   
   156  150  163 1   
   157  152  153 1   
   158  152  159 1   
   159  152  160 1   
   160  153  154 1   
   161  153  161 1   
   162  153  162 1   
   163  154  155 1   
   164  154  156 1   
   165  163  164 1   
   166  163  168 1   
   167  164  165 1   
   168  164  166 1   
   169  164  167 1   
   170  170  171 1   
   171  170  172 1   
   172  173  174 1   
   173  173  175 1   
@<TRIPOS>SUBSTRUCTURE
     1 MOL         1 TEMP              0 ****  ****    0 ROOT
