@<TRIPOS>MOLECULE
MOL
  191   184     1     0     0
SMALL
resp


@<TRIPOS>ATOM
      1 C1          2.0330   -0.2970    3.8550 c3        1 MOL     -0.404003
      2 C2          3.0150   -0.1250    2.6970 c         1 MOL      0.618944
      3 O1          2.6870    0.6020    1.7600 o         1 MOL     -0.593689
      4 H1          1.0600    0.0970    3.5650 hc        1 MOL      0.106564
      5 H2          1.9390   -1.3560    4.0960 hc        1 MOL      0.106564
      6 H3          2.4000    0.2450    4.7260 hc        1 MOL      0.106564
      7 N1          4.2010   -0.6970    2.8170 n         1 MOL     -0.325181
      8 C3          5.2680   -0.6900    1.8160 c3        1 MOL     -0.156480
      9 C4          5.4270   -2.0630    1.1540 c         1 MOL      0.440580
     10 O2          6.4070   -2.3110    0.4400 o         1 MOL     -0.414002
     11 C5          6.6470   -0.1810    2.3800 c3        1 MOL      0.013770
     12 C6          7.2710   -0.9900    3.5010 c         1 MOL      0.602681
     13 O3          6.6540   -1.9570    3.9990 o         1 MOL     -0.660658
     14 O4          8.4900   -0.7680    3.8070 o         1 MOL     -0.660658
     15 H4          4.4540   -1.3110    3.5810 hn        1 MOL      0.197522
     16 H5          4.8950    0.0030    1.0600 h1        1 MOL      0.161162
     17 H6          6.5660    0.8450    2.7510 hc        1 MOL      0.014261
     18 H7          7.3290   -0.1150    1.5320 hc        1 MOL      0.014261
     19 N2          4.3720   -2.8870    1.2260 n         1 MOL     -0.297477
     20 C7          4.2150   -4.2270    0.4580 c3        1 MOL      0.131277
     21 C8          4.4370   -4.0590   -1.0620 c         1 MOL      0.406854
     22 O5          5.3840   -4.5360   -1.7000 o         1 MOL     -0.504713
     23 C9          5.0700   -5.3700    1.1050 c3        1 MOL     -0.485296
     24 C10         4.7730   -5.4180    2.6130 c3        1 MOL      0.396919
     25 C11         5.4990   -6.4730    3.3080 c3        1 MOL     -0.262075
     26 C12         4.8520   -6.6650    4.7200 c3        1 MOL      0.225888
     27 N3          5.6940   -7.5770    5.5600 n4        1 MOL     -0.443099
     28 H8          3.6500   -2.5960    1.8750 hn        1 MOL      0.181875
     29 H9          3.1590   -4.4950    0.5610 h1        1 MOL      0.081587
     30 H10         6.1130   -5.0670    0.9500 hc        1 MOL      0.144241
     31 H11         4.8940   -6.2960    0.5640 hc        1 MOL      0.144241
     32 H12         3.7110   -5.6350    2.6810 hc        1 MOL     -0.048966
     33 H13         4.8910   -4.4640    3.1380 hc        1 MOL     -0.048966
     34 H14         6.4740   -6.0210    3.5320 hc        1 MOL      0.087871
     35 H15         5.5490   -7.4300    2.7930 hc        1 MOL      0.087871
     36 H16         3.8770   -7.1350    4.5890 hx        1 MOL      0.023303
     37 H17         4.6590   -5.6850    5.1600 hx        1 MOL      0.023303
     38 H18         5.3260   -7.4920    6.4980 hn        1 MOL      0.329861
     39 H19         5.5060   -8.5390    5.3270 hn        1 MOL      0.329861
     40 H20         6.6360   -7.2510    5.7190 hn        1 MOL      0.329861
     41 N4          3.7590   -3.0570   -1.6670 n         1 MOL     -0.300627
     42 C13         4.1190   -2.5170   -2.9850 c3        1 MOL      0.160040
     43 C14         4.8210   -1.2330   -2.7330 c         1 MOL      0.684273
     44 O6          4.4710   -0.4770   -1.8180 o         1 MOL     -0.603210
     45 C15         3.0380   -2.3500   -4.0720 c3        1 MOL     -0.451218
     46 C16         1.8030   -1.6350   -3.6420 c         1 MOL      1.002798
     47 O7          1.6290   -0.4470   -3.9630 o         1 MOL     -0.833918
     48 O8          0.9140   -2.1440   -2.9310 o         1 MOL     -0.833918
     49 H21         3.0150   -2.5760   -1.1960 hn        1 MOL      0.127938
     50 H22         4.9210   -3.1340   -3.3900 h1        1 MOL      0.059686
     51 H23         2.7980   -3.2600   -4.6270 hc        1 MOL      0.093428
     52 H24         3.4030   -1.6660   -4.8360 hc        1 MOL      0.093428
     53 N5          5.8060   -0.9920   -3.5530 n         1 MOL     -0.494605
     54 C17         6.5870    0.2120   -3.4340 c3        1 MOL      0.059389
     55 C18         7.6400    0.2220   -2.2590 c         1 MOL      0.486047
     56 O9          8.4770   -0.6480   -2.2310 o         1 MOL     -0.496686
     57 H25         6.1110   -1.6390   -4.2590 hn        1 MOL      0.321506
     58 H26         5.8840    1.0420   -3.4240 h1        1 MOL      0.043836
     59 H27         7.2070    0.2480   -4.3330 h1        1 MOL      0.043836
     60 N6          7.5640    1.2170   -1.3290 n         1 MOL     -0.508733
     61 C19         6.6370    2.3120   -1.2550 c3        1 MOL      0.164693
     62 C20         6.3490    2.6700    0.2240 c         1 MOL      0.462005
     63 O10         7.1700    2.5800    1.1230 o         1 MOL     -0.506744
     64 C21         7.0970    3.5260   -2.0800 c3        1 MOL     -0.145593
     65 C22         7.0230    3.3920   -3.5760 c         1 MOL      0.595528
     66 N7          8.0960    3.4440   -4.3490 n         1 MOL     -0.774434
     67 O11         5.9710    3.2330   -4.1110 o         1 MOL     -0.548147
     68 H28         8.2720    1.1140   -0.6170 hn        1 MOL      0.319526
     69 H29         5.6830    1.9500   -1.6520 h1        1 MOL      0.106859
     70 H30         8.0520    3.9190   -1.7270 hc        1 MOL      0.065906
     71 H31         6.4040    4.2960   -1.7520 hc        1 MOL      0.065906
     72 H32         9.0200    3.7970   -4.1610 hn        1 MOL      0.362100
     73 H33         7.8230    3.3320   -5.3170 hn        1 MOL      0.362100
     74 N8          5.1440    3.2100    0.5850 n         1 MOL     -0.435543
     75 C23         3.9280    3.4800   -0.2530 c3        1 MOL     -0.084696
     76 C24         2.6880    4.0630    0.4830 c         1 MOL      0.764359
     77 O12         2.8260    4.9500    1.2950 o         1 MOL     -0.577287
     78 H34         5.0930    3.3250    1.5920 hn        1 MOL      0.321571
     79 H35         3.7290    2.5560   -0.7910 h1        1 MOL      0.025236
     80 H36         4.2510    4.1110   -1.0780 h1        1 MOL      0.025236
     81 N9          1.5050    3.6150    0.1420 n         1 MOL     -0.661465
     82 C25         0.2560    3.9590    0.7290 c3        1 MOL      0.302206
     83 C26        -0.7180    2.7310    0.7170 c         1 MOL      0.517331
     84 O13        -0.6050    1.8830   -0.2110 o         1 MOL     -0.586639
     85 C27        -0.3230    5.2480    0.2060 c3        1 MOL     -0.164079
     86 C28        -1.1580    5.9940    1.2210 ca        1 MOL      0.164574
     87 C29        -2.4840    6.2480    0.8940 ca        1 MOL     -0.215679
     88 C30        -0.5850    6.4950    2.4200 ca        1 MOL     -0.215679
     89 C31        -3.3450    6.8710    1.8320 ca        1 MOL     -0.210667
     90 C32        -1.3730    7.2570    3.2960 ca        1 MOL     -0.210667
     91 C33        -2.7510    7.3270    3.0430 ca        1 MOL      0.275691
     92 O14        -3.5150    7.9390    4.0110 oh        1 MOL     -0.511705
     93 H37         1.2920    2.9390   -0.5790 hn        1 MOL      0.322155
     94 H38         0.4660    4.1450    1.7780 h1        1 MOL      0.029637
     95 H39        -1.0060    4.9540   -0.5840 hc        1 MOL      0.042950
     96 H40         0.4130    5.9420   -0.2110 hc        1 MOL      0.042950
     97 H41        -2.8700    5.8280   -0.0220 ha        1 MOL      0.148414
     98 H42         0.4790    6.3960    2.6230 ha        1 MOL      0.148414
     99 H43        -4.3920    6.9230    1.6120 ha        1 MOL      0.147288
    100 H44        -0.9750    7.4240    4.2950 ha        1 MOL      0.147288
    101 H45        -3.0190    8.2490    4.7720 ho        1 MOL      0.377881
    102 N10        -1.6660    2.7400    1.6720 n         1 MOL     -0.386199
    103 C34        -2.8550    1.9270    1.5570 c3        1 MOL      0.277186
    104 C35        -3.8110    2.3200    0.4140 c         1 MOL      0.327660
    105 O15        -3.7780    3.4400   -0.0360 o         1 MOL     -0.482097
    106 C36        -3.5830    1.8080    2.9320 c3        1 MOL      0.252156
    107 C37        -4.5480    2.9530    3.3090 c3        1 MOL      0.080871
    108 C38        -4.3400    0.4370    2.9980 c3        1 MOL     -0.597334
    109 C39        -3.7920    4.1790    3.7420 c3        1 MOL     -0.307467
    110 H46        -1.5960    3.4410    2.3980 hn        1 MOL      0.163582
    111 H47        -2.4590    0.9250    1.3680 h1        1 MOL     -0.039478
    112 H48        -2.8160    1.7440    3.7040 hc        1 MOL      0.004825
    113 H49        -5.2060    2.7220    4.1390 hc        1 MOL      0.009174
    114 H50        -5.1530    3.2130    2.4280 hc        1 MOL      0.009174
    115 H51        -3.5460   -0.2940    2.8560 hc        1 MOL      0.140723
    116 H52        -4.7590    0.1070    3.9590 hc        1 MOL      0.140723
    117 H53        -5.0690    0.4280    2.1970 hc        1 MOL      0.140723
    118 H54        -4.5310    4.9730    3.7790 hc        1 MOL      0.078762
    119 H55        -3.3040    3.9030    4.6780 hc        1 MOL      0.078762
    120 H56        -3.0850    4.4110    2.9460 hc        1 MOL      0.078762
    121 N11        -4.7280    1.4260   -0.0700 n         1 MOL     -0.230862
    122 C40        -5.7340    1.5940   -1.0960 c3        1 MOL      0.417398
    123 C41        -5.8050    0.3010   -1.8890 c         1 MOL      0.396782
    124 O16        -5.2140   -0.6910   -1.4560 o         1 MOL     -0.527184
    125 C42        -7.0630    1.7100   -0.4480 c3        1 MOL     -0.387099
    126 O17        -7.4340    0.4580    0.0760 oh        1 MOL     -0.169872
    127 H57        -4.7190    0.5780    0.4720 hn        1 MOL      0.016170
    128 H58        -5.4390    2.4040   -1.7620 h1        1 MOL     -0.029916
    129 H59        -7.7800    1.7720   -1.2560 h1        1 MOL      0.125867
    130 H60        -6.9660    2.4900    0.3080 h1        1 MOL      0.125867
    131 H61        -8.3890    0.4500    0.1320 ho        1 MOL      0.357706
    132 N12        -6.4760    0.2490   -3.0570 n         1 MOL     -0.501270
    133 C43        -6.6130   -0.8690   -3.9290 c3        1 MOL      0.243833
    134 C44        -7.2010   -2.1090   -3.2180 c         1 MOL      0.509920
    135 O18        -6.5060   -3.0790   -3.1030 o         1 MOL     -0.411875
    136 C45        -5.2370   -0.9970   -4.5910 c3        1 MOL     -0.219800
    137 H62        -7.0150    1.0650   -3.2880 hn        1 MOL      0.288072
    138 H63        -7.2430   -0.5850   -4.7680 h1        1 MOL      0.024362
    139 H64        -5.3130   -1.9750   -5.0590 hc        1 MOL      0.066814
    140 H65        -5.0290   -0.2500   -5.3520 hc        1 MOL      0.066814
    141 H66        -4.4170   -0.9750   -3.8740 hc        1 MOL      0.066814
    142 N13        -8.4680   -1.8730   -2.6800 n         1 MOL     -0.651859
    143 C46        -9.1580   -2.7920   -1.8240 c3        1 MOL      0.351693
    144 C47        -8.4370   -3.2990   -0.4600 c         1 MOL      0.094369
    145 O19        -8.9450   -4.1660    0.2990 o         1 MOL     -0.469937
    146 C48        -9.3810   -4.0510   -2.5820 c3        1 MOL     -0.390542
    147 H67        -8.8420   -0.9380   -2.8010 hn        1 MOL      0.325572
    148 H68       -10.0950   -2.3130   -1.5310 h1        1 MOL      0.038422
    149 H69        -9.5310   -3.8400   -3.6350 hc        1 MOL      0.116469
    150 H70        -8.5360   -4.7040   -2.4030 hc        1 MOL      0.116469
    151 H71       -10.3140   -4.5300   -2.2720 hc        1 MOL      0.116469
    152 N14        -7.3170   -2.6920   -0.0850 n         1 MOL      0.540011
    153 C49        -6.6330   -3.1910    1.0600 c3        1 MOL     -0.228474
    154 C50        -7.2610   -2.6920    2.3760 c         1 MOL      0.578310
    155 O20        -7.4770   -3.5380    3.2280 o         1 MOL     -0.542250
    156 C51        -5.1480   -2.8170    0.9050 c3        1 MOL      0.027603
    157 C52        -4.2060   -3.8230    1.5700 c3        1 MOL     -0.256785
    158 C53        -2.7740   -3.4100    1.3170 c         1 MOL      0.656913
    159 O21        -2.4710   -2.2590    0.9220 o         1 MOL     -0.679927
    160 O22        -1.9260   -4.3050    1.4170 o         1 MOL     -0.679927
    161 H72        -6.9320   -1.8900   -0.5600 hn        1 MOL     -0.479329
    162 H73        -6.7580   -4.2700    1.0530 h1        1 MOL      0.115981
    163 H74        -5.0120   -1.8060    1.2820 hc        1 MOL      0.117196
    164 H75        -4.9520   -2.8830   -0.1650 hc        1 MOL      0.117196
    165 H76        -4.3310   -4.8190    1.1610 hc        1 MOL      0.073651
    166 H77        -4.4380   -3.7520    2.6340 hc        1 MOL      0.073651
    167 N15        -7.6920   -1.4360    2.4760 n         1 MOL     -0.199675
    168 C54        -8.8340   -1.0900    3.3220 c3        1 MOL     -0.310358
    169 H78        -9.4770   -0.3870    2.7930 h1        1 MOL      0.121971
    170 H79        -9.3990   -1.9920    3.5570 h1        1 MOL      0.121971
    171 H80        -8.4790   -0.6320    4.2450 h1        1 MOL      0.121971
    172 H81        -7.6560   -0.9530    1.5870 hn        1 MOL      0.040417
    173 Ca1        -0.2080    0.1030   -2.1800 Ca        1 MOL      1.737253
    174 O23        -1.7430   -0.8820   -4.2900 oh        1 MOL     -0.797306
    175 H82        -2.3680   -1.4730   -3.8660 ho        1 MOL      0.396317
    176 H83        -1.8690   -1.0160   -5.2230 ho        1 MOL      0.396317
    177 O24        -2.2800    2.0660   -2.6930 oh        1 MOL     -0.797306
    178 H84        -2.5090    2.8260   -2.1690 ho        1 MOL      0.396317
    179 H85        -2.9140    2.0690   -3.4150 ho        1 MOL      0.396317
    180 O25        -2.4860   -0.8420   -1.1580 oh        1 MOL     -0.797306
    181 H86        -2.5210   -1.2600   -0.2960 ho        1 MOL      0.396317
    182 H87        -3.3900   -0.8190   -1.4540 ho        1 MOL      0.396317
    183 O26         0.5770    2.5020   -3.0420 oh        1 MOL     -0.797306
    184 H88         0.2200    2.8170   -3.8770 ho        1 MOL      0.396317
    185 H89         1.1210    3.2290   -2.7190 ho        1 MOL      0.396317
    186 O27         0.0080   -1.2440    0.0310 oh        1 MOL     -0.797306
    187 H90        -0.7830   -1.2710    0.5750 ho        1 MOL      0.396317
    188 H91         0.3700   -2.1210    0.0970 ho        1 MOL      0.396317
    189 O28         2.2310    0.5520   -1.2040 oh        1 MOL     -0.797306
    190 H92         2.5850    0.5210   -0.3140 ho        1 MOL      0.396317
    191 H93         2.9280    0.1780   -1.7500 ho        1 MOL      0.396317
@<TRIPOS>BOND
     1    1    2 1   
     2    1    4 1   
     3    1    5 1   
     4    1    6 1   
     5    2    3 2   
     6    2    7 1   
     7    7    8 1   
     8    7   15 1   
     9    8    9 1   
    10    8   11 1   
    11    8   16 1   
    12    9   10 2   
    13    9   19 1   
    14   11   12 1   
    15   11   17 1   
    16   11   18 1   
    17   12   13 1   
    18   12   14 1   
    19   19   20 1   
    20   19   28 1   
    21   20   21 1   
    22   20   23 1   
    23   20   29 1   
    24   21   22 2   
    25   21   41 1   
    26   23   24 1   
    27   23   30 1   
    28   23   31 1   
    29   24   25 1   
    30   24   32 1   
    31   24   33 1   
    32   25   26 1   
    33   25   34 1   
    34   25   35 1   
    35   26   27 1   
    36   26   36 1   
    37   26   37 1   
    38   27   38 1   
    39   27   39 1   
    40   27   40 1   
    41   41   42 1   
    42   41   49 1   
    43   42   43 1   
    44   42   45 1   
    45   42   50 1   
    46   43   44 2   
    47   43   53 1   
    48   45   46 1   
    49   45   51 1   
    50   45   52 1   
    51   46   47 1   
    52   46   48 1   
    53   53   54 1   
    54   53   57 1   
    55   54   55 1   
    56   54   58 1   
    57   54   59 1   
    58   55   56 2   
    59   55   60 1   
    60   60   61 1   
    61   60   68 1   
    62   61   62 1   
    63   61   64 1   
    64   61   69 1   
    65   62   63 2   
    66   62   74 1   
    67   64   65 1   
    68   64   70 1   
    69   64   71 1   
    70   65   66 1   
    71   65   67 2   
    72   66   72 1   
    73   66   73 1   
    74   74   75 1   
    75   74   78 1   
    76   75   76 1   
    77   75   79 1   
    78   75   80 1   
    79   76   77 2   
    80   76   81 1   
    81   81   82 1   
    82   81   93 1   
    83   82   83 1   
    84   82   85 1   
    85   82   94 1   
    86   83   84 2   
    87   83  102 1   
    88   85   86 1   
    89   85   95 1   
    90   85   96 1   
    91   86   87 ar  
    92   86   88 ar  
    93   87   89 ar  
    94   87   97 1   
    95   88   90 ar  
    96   88   98 1   
    97   89   91 ar  
    98   89   99 1   
    99   90   91 ar  
   100   90  100 1   
   101   91   92 1   
   102   92  101 1   
   103  102  103 1   
   104  102  110 1   
   105  103  104 1   
   106  103  106 1   
   107  103  111 1   
   108  104  105 2   
   109  104  121 1   
   110  106  107 1   
   111  106  108 1   
   112  106  112 1   
   113  107  109 1   
   114  107  113 1   
   115  107  114 1   
   116  108  115 1   
   117  108  116 1   
   118  108  117 1   
   119  109  118 1   
   120  109  119 1   
   121  109  120 1   
   122  121  122 1   
   123  121  127 1   
   124  122  123 1   
   125  122  125 1   
   126  122  128 1   
   127  123  124 2   
   128  123  132 1   
   129  125  126 1   
   130  125  129 1   
   131  125  130 1   
   132  126  131 1   
   133  132  133 1   
   134  132  137 1   
   135  133  134 1   
   136  133  136 1   
   137  133  138 1   
   138  134  135 2   
   139  134  142 1   
   140  136  139 1   
   141  136  140 1   
   142  136  141 1   
   143  142  143 1   
   144  142  147 1   
   145  143  144 1   
   146  143  146 1   
   147  143  148 1   
   148  144  145 2   
   149  144  152 1   
   150  146  149 1   
   151  146  150 1   
   152  146  151 1   
   153  152  153 1   
   154  152  161 1   
   155  153  154 1   
   156  153  156 1   
   157  153  162 1   
   158  154  155 2   
   159  154  167 1   
   160  156  157 1   
   161  156  163 1   
   162  156  164 1   
   163  157  158 1   
   164  157  165 1   
   165  157  166 1   
   166  158  159 1   
   167  158  160 1   
   168  167  168 1   
   169  167  172 1   
   170  168  169 1   
   171  168  170 1   
   172  168  171 1   
   173  174  175 1   
   174  174  176 1   
   175  177  178 1   
   176  177  179 1   
   177  180  181 1   
   178  180  182 1   
   179  183  184 1   
   180  183  185 1   
   181  186  187 1   
   182  186  188 1   
   183  189  190 1   
   184  189  191 1   
@<TRIPOS>SUBSTRUCTURE
     1 MOL         1 TEMP              0 ****  ****    0 ROOT
