@<TRIPOS>MOLECULE
MOL
  192   187     1     0     0
SMALL
resp


@<TRIPOS>ATOM
      1 C1         10.1680    1.6730    0.8360 c3        1 MOL     -0.514140
      2 C2          8.8690    1.2530    0.0720 c         1 MOL      0.792506
      3 O1          7.7750    1.5180    0.5390 o         1 MOL     -0.692646
      4 H1         10.7690    0.7880    1.0430 hc        1 MOL      0.129713
      5 H2         10.7430    2.3660    0.2220 hc        1 MOL      0.129713
      6 H3          9.8990    2.1550    1.7750 hc        1 MOL      0.129713
      7 N1          8.9160    0.6270   -1.1320 n         1 MOL     -0.479816
      8 C3          7.8710    0.1080   -2.0440 c3        1 MOL     -0.139984
      9 C4          7.2580   -1.2500   -1.5700 c         1 MOL      0.542371
     10 O2          6.8070   -2.0420   -2.4170 o         1 MOL     -0.445956
     11 C5          8.3860    0.1380   -3.5080 c3        1 MOL     -0.225177
     12 C6          9.6770   -0.5750   -3.8800 c         1 MOL      0.752066
     13 O3         10.5220   -0.9310   -3.0210 o         1 MOL     -0.664519
     14 O4          9.8280   -0.7190   -5.1090 o         1 MOL     -0.664519
     15 H4          9.8560    0.6390   -1.5080 hn        1 MOL      0.232524
     16 H5          7.0010    0.7540   -1.9520 h1        1 MOL      0.172107
     17 H6          8.4870    1.2010   -3.7340 hc        1 MOL      0.088542
     18 H7          7.6550   -0.2960   -4.1880 hc        1 MOL      0.088542
     19 N2          7.1600   -1.4840   -0.2690 n         1 MOL     -0.514944
     20 C7          6.6890   -2.7930    0.3480 c3        1 MOL      0.314059
     21 C8          5.2490   -3.1470   -0.0300 c         1 MOL      0.336555
     22 O5          4.9900   -4.1320   -0.6900 o         1 MOL     -0.493559
     23 C9          7.0500   -2.8810    1.8510 c3        1 MOL     -0.189489
     24 C10         8.5630   -2.8400    2.0770 c3        1 MOL     -0.010256
     25 C11         8.7820   -2.9460    3.5990 c3        1 MOL     -0.071351
     26 C12        10.2970   -2.7490    3.8820 c3        1 MOL      0.132084
     27 N3         10.4970   -3.0950    5.3170 n4        1 MOL     -0.253466
     28 H8          7.5000   -0.7540    0.3280 hn        1 MOL      0.295833
     29 H9          7.2650   -3.6000   -0.1060 h1        1 MOL      0.020602
     30 H10         6.6080   -3.8500    2.0920 hc        1 MOL      0.050599
     31 H11         6.5400   -2.0700    2.3790 hc        1 MOL      0.050599
     32 H12         9.0030   -1.9660    1.5910 hc        1 MOL      0.044537
     33 H13         8.9530   -3.7380    1.6010 hc        1 MOL      0.044537
     34 H14         8.4190   -3.9390    3.8840 hc        1 MOL      0.043460
     35 H15         8.2970   -2.1160    4.1100 hc        1 MOL      0.043460
     36 H16        10.5940   -1.7150    3.7130 hx        1 MOL      0.045293
     37 H17        10.8040   -3.4480    3.2170 hx        1 MOL      0.045293
     38 H18        10.2730   -4.0710    5.4720 hn        1 MOL      0.247301
     39 H19        11.4460   -2.9320    5.6130 hn        1 MOL      0.247301
     40 H20         9.9220   -2.5210    5.9200 hn        1 MOL      0.247301
     41 N4          4.2150   -2.2800    0.1320 n         1 MOL     -0.273824
     42 C13         4.1340   -0.9770    0.8100 c3        1 MOL     -0.009111
     43 C14         3.9430    0.1240   -0.2070 c         1 MOL      0.255949
     44 O6          3.8190   -0.1570   -1.3890 o         1 MOL     -0.445221
     45 C15         3.0170   -0.9980    1.8880 c3        1 MOL     -0.113210
     46 C16         1.6420   -1.4230    1.3810 c         1 MOL      0.581535
     47 O7          1.0770   -0.6250    0.6160 o         1 MOL     -0.629345
     48 O8          1.2870   -2.5840    1.6040 o         1 MOL     -0.629345
     49 H21         3.3760   -2.5150   -0.3750 hn        1 MOL      0.334748
     50 H22         5.0750   -0.8100    1.3410 h1        1 MOL      0.111777
     51 H23         2.9410   -0.0410    2.4060 hc        1 MOL      0.002526
     52 H24         3.4000   -1.6790    2.6510 hc        1 MOL      0.002526
     53 N5          3.9980    1.4210    0.2690 n         1 MOL     -0.293478
     54 C17         3.7960    2.6130   -0.5550 c3        1 MOL     -0.044933
     55 C18         2.3070    2.9720   -0.9730 c         1 MOL      0.359164
     56 O9          1.4140    2.1450   -0.8560 o         1 MOL     -0.391938
     57 H25         4.1400    1.5540    1.2630 hn        1 MOL      0.271466
     58 H26         4.4180    2.5880   -1.4490 h1        1 MOL      0.101630
     59 H27         4.2060    3.4500    0.0120 h1        1 MOL      0.101630
     60 N6          2.0290    4.1250   -1.5280 n         1 MOL     -0.546078
     61 C19         0.8130    4.6930   -1.9800 c3        1 MOL      0.472074
     62 C20         0.8450    6.2530   -1.9810 c         1 MOL      0.367036
     63 O10         1.9170    6.8280   -1.8680 o         1 MOL     -0.508461
     64 C21         0.4820    4.2360   -3.4050 c3        1 MOL     -0.071911
     65 C22         0.3470    2.7380   -3.6050 c         1 MOL      0.674558
     66 O11        -0.5060    2.1130   -2.9650 o         1 MOL     -0.685599
     67 O12         1.0360    2.1690   -4.5090 o         1 MOL     -0.685599
     68 H28         2.8620    4.6970   -1.6320 hn        1 MOL      0.292425
     69 H29        -0.1270    4.4230   -1.4840 h1        1 MOL     -0.071947
     70 H30         1.3240    4.5370   -4.0300 hc        1 MOL     -0.010082
     71 H31        -0.4380    4.7150   -3.7240 hc        1 MOL     -0.010082
     72 N7         -0.2860    7.0050   -2.0040 n         1 MOL     -0.411183
     73 C23        -1.6460    6.5710   -2.1340 c3        1 MOL     -0.109963
     74 C24        -2.1830    5.9250   -0.8290 c         1 MOL      0.594806
     75 O13        -1.7780    6.2620    0.2830 o         1 MOL     -0.505323
     76 H32        -0.2200    8.0130   -1.9510 hn        1 MOL      0.335596
     77 H33        -1.9000    5.8280   -2.8970 h1        1 MOL      0.082323
     78 H34        -2.2920    7.4320   -2.3230 h1        1 MOL      0.082323
     79 N8         -3.1290    4.9340   -1.0060 n         1 MOL     -0.628588
     80 C25        -3.5930    3.9810    0.0380 c3        1 MOL      0.011338
     81 C26        -2.3080    3.3300    0.5260 c         1 MOL      0.667779
     82 O14        -1.7310    2.5910   -0.3050 o         1 MOL     -0.620905
     83 C27        -4.6340    2.9880   -0.5480 c3        1 MOL      0.616940
     84 C28        -5.7970    3.5940   -1.3570 c3        1 MOL     -0.383570
     85 O15        -5.1420    2.4230    0.5800 oh        1 MOL     -0.719304
     86 H35        -3.3740    4.7370   -1.9720 hn        1 MOL      0.315860
     87 H36        -4.0980    4.5350    0.8400 h1        1 MOL      0.074313
     88 H37        -4.0870    2.2390   -1.1100 h1        1 MOL     -0.094443
     89 H38        -5.6960    1.7080    0.2760 ho        1 MOL      0.382446
     90 H39        -6.4550    2.9130   -1.8780 hc        1 MOL      0.080882
     91 H40        -6.3700    4.1260   -0.6040 hc        1 MOL      0.080882
     92 H41        -5.3830    4.3280   -2.0570 hc        1 MOL      0.080882
     93 N9         -2.0080    3.3790    1.8250 n         1 MOL     -0.561490
     94 C29        -1.2510    2.5470    2.7100 c3        1 MOL      0.124865
     95 C30        -1.6900    1.1340    2.6400 c         1 MOL      0.789287
     96 O16        -1.4130    0.3470    1.7110 o         1 MOL     -0.719798
     97 C31         0.3270    2.6940    2.5100 c3        1 MOL      0.926252
     98 C32         0.8340    4.1460    2.7220 c3        1 MOL     -0.096312
     99 C33         1.0580    1.6690    3.4230 c3        1 MOL     -0.436894
    100 C34         0.7170    4.7940    4.0800 c3        1 MOL     -0.304287
    101 H42        -2.6690    3.8900    2.3910 hn        1 MOL      0.268841
    102 H43        -1.3420    2.8060    3.7640 h1        1 MOL     -0.078229
    103 H44         0.6340    2.4600    1.4900 hc        1 MOL     -0.364458
    104 H45         0.3410    4.8090    2.0220 hc        1 MOL      0.027603
    105 H46         1.8980    3.9890    2.5260 hc        1 MOL      0.027603
    106 H47         0.7900    0.6420    3.2140 hc        1 MOL      0.071116
    107 H48         2.1340    1.7770    3.3070 hc        1 MOL      0.071116
    108 H49         0.8610    1.8270    4.4880 hc        1 MOL      0.071116
    109 H50         1.5000    5.5310    4.2550 hc        1 MOL      0.065979
    110 H51        -0.2580    5.2770    4.0480 hc        1 MOL      0.065979
    111 H52         0.8390    4.0330    4.8610 hc        1 MOL      0.065979
    112 N10        -2.2040    0.6400    3.8310 n         1 MOL     -0.753861
    113 C35        -2.4070   -0.7450    4.1240 c3        1 MOL     -0.051181
    114 C36        -3.8470   -1.2060    3.8270 c         1 MOL      0.405585
    115 O17        -4.2190   -2.2920    4.3060 o         1 MOL     -0.543326
    116 C37        -1.9500   -1.1510    5.5910 c3        1 MOL      0.424653
    117 C38        -2.7650   -0.5630    6.6770 c3        1 MOL     -0.129053
    118 O18        -0.7140   -0.5890    5.8520 oh        1 MOL     -0.616852
    119 H53        -2.4420    1.3150    4.5380 hn        1 MOL      0.374813
    120 H54        -1.7700   -1.3430    3.4690 h1        1 MOL      0.149390
    121 H55        -1.8680   -2.2390    5.6310 h1        1 MOL     -0.006062
    122 H56        -0.0420   -1.1930    5.5400 ho        1 MOL      0.391757
    123 H57        -3.1260    0.4220    6.3560 hc        1 MOL      0.033620
    124 H58        -3.7050   -1.0900    6.8470 hc        1 MOL      0.033620
    125 H59        -2.3050   -0.5300    7.6620 hc        1 MOL      0.033620
    126 N11        -4.6590   -0.4680    3.1080 n         1 MOL     -0.107267
    127 C39        -5.9280   -1.0120    2.5730 c3        1 MOL      0.008256
    128 C40        -5.8880   -1.1760    1.0550 c         1 MOL      0.421067
    129 O19        -5.3730   -0.3440    0.2850 o         1 MOL     -0.438734
    130 C41        -7.2670   -0.2920    3.0500 c3        1 MOL      0.327759
    131 C42        -7.3340   -0.1790    4.5040 c3        1 MOL     -0.378859
    132 O20        -7.2420    0.9910    2.3660 oh        1 MOL     -0.622091
    133 H60        -4.4260    0.4860    2.8660 hn        1 MOL      0.175743
    134 H61        -6.0880   -2.0160    2.9620 h1        1 MOL      0.067992
    135 H62        -8.1690   -0.6940    2.5930 h1        1 MOL     -0.020073
    136 H63        -8.0100    1.4920    2.6440 ho        1 MOL      0.403915
    137 H64        -7.7950    0.7760    4.7250 hc        1 MOL      0.105414
    138 H65        -7.8950   -1.0320    4.8800 hc        1 MOL      0.105414
    139 H66        -6.3750   -0.3540    5.0080 hc        1 MOL      0.105414
    140 N12        -6.4320   -2.2880    0.5400 n         1 MOL     -0.428007
    141 C43        -6.4660   -2.7070   -0.7900 c3        1 MOL      0.193585
    142 C44        -5.1280   -2.6170   -1.5600 c         1 MOL      0.545384
    143 O21        -4.9570   -1.9140   -2.5220 o         1 MOL     -0.532914
    144 C45        -7.7010   -2.1810   -1.5030 c3        1 MOL     -0.173443
    145 C46        -9.0210   -2.1940   -0.7570 c3        1 MOL      0.047601
    146 C47       -10.2690   -1.8550   -1.6450 c3        1 MOL     -0.145023
    147 C48       -10.1500   -0.4310   -2.2700 c3        1 MOL      0.217526
    148 N13       -11.3170   -0.1130   -3.0850 n4        1 MOL     -0.357152
    149 H67        -6.8690   -2.8860    1.2330 hn        1 MOL      0.254882
    150 H68        -6.6550   -3.7760   -0.8070 h1        1 MOL      0.041353
    151 H69        -7.8150   -2.7260   -2.4340 hc        1 MOL      0.071619
    152 H70        -7.3450   -1.1740   -1.7540 hc        1 MOL      0.071619
    153 H71        -8.9540   -1.4880    0.0650 hc        1 MOL      0.015951
    154 H72        -9.0400   -3.1690   -0.2670 hc        1 MOL      0.015951
    155 H73       -11.2070   -1.8650   -1.0780 hc        1 MOL      0.054075
    156 H74       -10.3680   -2.5800   -2.4410 hc        1 MOL      0.054075
    157 H75        -9.2240   -0.3500   -2.8470 hx        1 MOL      0.027934
    158 H76       -10.0310    0.2830   -1.4550 hx        1 MOL      0.027934
    159 H77       -11.2290    0.7290   -3.6340 hn        1 MOL      0.257780
    160 H78       -11.5750   -0.7730   -3.7960 hn        1 MOL      0.257780
    161 H79       -12.0850   -0.0350   -2.4310 hn        1 MOL      0.257780
    162 N14        -4.0820   -3.3710   -1.0750 n         1 MOL     -0.693897
    163 C49        -2.7360   -3.4960   -1.7720 c3        1 MOL      0.313887
    164 C50        -1.5100   -3.1380   -0.8990 c         1 MOL      0.243581
    165 O22        -0.6700   -2.4390   -1.4010 o         1 MOL     -0.450942
    166 C51        -2.5700   -4.8690   -2.4400 c3        1 MOL      0.185271
    167 C52        -3.6980   -5.2510   -3.3720 c3        1 MOL     -0.291137
    168 C53        -3.5690   -6.6730   -3.9800 c         1 MOL      0.648974
    169 O23        -4.4860   -7.4950   -3.6570 o         1 MOL     -0.615215
    170 O24        -2.5570   -6.9900   -4.6440 o         1 MOL     -0.615215
    171 H80        -4.2840   -3.9030   -0.2350 hn        1 MOL      0.333935
    172 H81        -2.6720   -2.8160   -2.6140 h1        1 MOL      0.029264
    173 H82        -2.4780   -5.5890   -1.6190 hc        1 MOL      0.002129
    174 H83        -1.6020   -4.9070   -2.9400 hc        1 MOL      0.002129
    175 H84        -3.7400   -4.4330   -4.0940 hc        1 MOL      0.045423
    176 H85        -4.6180   -5.2820   -2.7900 hc        1 MOL      0.045423
    177 N15        -1.2380   -3.5000    0.3990 n         1 MOL     -0.288380
    178 C54        -1.5980   -4.6390    1.1860 c3        1 MOL     -0.023590
    179 H86        -1.1280   -4.5650    2.1660 h1        1 MOL      0.029976
    180 H87        -2.6820   -4.6710    1.3060 h1        1 MOL      0.029976
    181 H88        -1.2600   -5.5470    0.6880 h1        1 MOL      0.029976
    182 H89        -0.4570   -3.0520    0.8550 hn        1 MOL      0.309768
    183 Ca1        -0.4900    0.3220   -1.0300 Ca        1 MOL      1.725946
    184 O25        -1.4990   -0.6330   -3.4390 oh        1 MOL     -0.850435
    185 H90        -0.9940   -1.1660   -4.0370 ho        1 MOL      0.419005
    186 H91        -2.0410   -0.0880   -4.0090 ho        1 MOL      0.419005
    187 O26        -2.9820   -0.0680   -0.9860 oh        1 MOL     -0.850435
    188 H92        -3.7420   -0.0480   -0.4070 ho        1 MOL      0.419005
    189 H93        -3.2720   -0.5490   -1.7660 ho        1 MOL      0.419005
    190 O27         1.2970   -0.2870   -2.7620 oh        1 MOL     -0.850435
    191 H94         2.1100   -0.4470   -2.2810 ho        1 MOL      0.419005
    192 H95         1.4640    0.5230   -3.2400 ho        1 MOL      0.419005
@<TRIPOS>BOND
     1    1    2 1   
     2    1    4 1   
     3    1    5 1   
     4    1    6 1   
     5    2    3 2   
     6    2    7 1   
     7    7    8 1   
     8    7   15 1   
     9    8    9 1   
    10    8   11 1   
    11    8   16 1   
    12    9   10 2   
    13    9   19 1   
    14   11   12 1   
    15   11   17 1   
    16   11   18 1   
    17   12   13 1   
    18   12   14 1   
    19   19   20 1   
    20   19   28 1   
    21   20   21 1   
    22   20   23 1   
    23   20   29 1   
    24   21   22 2   
    25   21   41 1   
    26   23   24 1   
    27   23   30 1   
    28   23   31 1   
    29   24   25 1   
    30   24   32 1   
    31   24   33 1   
    32   25   26 1   
    33   25   34 1   
    34   25   35 1   
    35   26   27 1   
    36   26   36 1   
    37   26   37 1   
    38   27   38 1   
    39   27   39 1   
    40   27   40 1   
    41   41   42 1   
    42   41   49 1   
    43   42   43 1   
    44   42   45 1   
    45   42   50 1   
    46   43   44 2   
    47   43   53 1   
    48   45   46 1   
    49   45   51 1   
    50   45   52 1   
    51   46   47 1   
    52   46   48 1   
    53   53   54 1   
    54   53   57 1   
    55   54   55 1   
    56   54   58 1   
    57   54   59 1   
    58   55   56 2   
    59   55   60 1   
    60   60   61 1   
    61   60   68 1   
    62   61   62 1   
    63   61   64 1   
    64   61   69 1   
    65   62   63 2   
    66   62   72 1   
    67   64   65 1   
    68   64   70 1   
    69   64   71 1   
    70   65   66 1   
    71   65   67 1   
    72   72   73 1   
    73   72   76 1   
    74   73   74 1   
    75   73   77 1   
    76   73   78 1   
    77   74   75 2   
    78   74   79 1   
    79   79   80 1   
    80   79   86 1   
    81   80   81 1   
    82   80   83 1   
    83   80   87 1   
    84   81   82 2   
    85   81   93 1   
    86   83   84 1   
    87   83   85 1   
    88   83   88 1   
    89   84   90 1   
    90   84   91 1   
    91   84   92 1   
    92   85   89 1   
    93   93   94 1   
    94   93  101 1   
    95   94   95 1   
    96   94   97 1   
    97   94  102 1   
    98   95   96 2   
    99   95  112 1   
   100   97   98 1   
   101   97   99 1   
   102   97  103 1   
   103   98  100 1   
   104   98  104 1   
   105   98  105 1   
   106   99  106 1   
   107   99  107 1   
   108   99  108 1   
   109  100  109 1   
   110  100  110 1   
   111  100  111 1   
   112  112  113 1   
   113  112  119 1   
   114  113  114 1   
   115  113  116 1   
   116  113  120 1   
   117  114  115 2   
   118  114  126 1   
   119  116  117 1   
   120  116  118 1   
   121  116  121 1   
   122  117  123 1   
   123  117  124 1   
   124  117  125 1   
   125  118  122 1   
   126  126  127 1   
   127  126  133 1   
   128  127  128 1   
   129  127  130 1   
   130  127  134 1   
   131  128  129 2   
   132  128  140 1   
   133  130  131 1   
   134  130  132 1   
   135  130  135 1   
   136  131  137 1   
   137  131  138 1   
   138  131  139 1   
   139  132  136 1   
   140  140  141 1   
   141  140  149 1   
   142  141  142 1   
   143  141  144 1   
   144  141  150 1   
   145  142  143 2   
   146  142  162 1   
   147  144  145 1   
   148  144  151 1   
   149  144  152 1   
   150  145  146 1   
   151  145  153 1   
   152  145  154 1   
   153  146  147 1   
   154  146  155 1   
   155  146  156 1   
   156  147  148 1   
   157  147  157 1   
   158  147  158 1   
   159  148  159 1   
   160  148  160 1   
   161  148  161 1   
   162  162  163 1   
   163  162  171 1   
   164  163  164 1   
   165  163  166 1   
   166  163  172 1   
   167  164  165 2   
   168  164  177 1   
   169  166  167 1   
   170  166  173 1   
   171  166  174 1   
   172  167  168 1   
   173  167  175 1   
   174  167  176 1   
   175  168  169 1   
   176  168  170 1   
   177  177  178 1   
   178  177  182 1   
   179  178  179 1   
   180  178  180 1   
   181  178  181 1   
   182  184  185 1   
   183  184  186 1   
   184  187  188 1   
   185  187  189 1   
   186  190  191 1   
   187  190  192 1   
@<TRIPOS>SUBSTRUCTURE
     1 MOL         1 TEMP              0 ****  ****    0 ROOT
