@<TRIPOS>MOLECULE
MOL
  184   179     1     0     0
SMALL
resp


@<TRIPOS>ATOM
      1 C1          1.9840   -3.2070    4.2160 c3        1 MOL     -0.396635
      2 C2          2.9680   -2.1670    3.6460 c         1 MOL      0.618863
      3 O1          2.9030   -1.8140    2.4700 o         1 MOL     -0.502888
      4 H1          1.0620   -2.7090    4.5160 hc        1 MOL      0.105981
      5 H2          1.7620   -3.9540    3.4540 hc        1 MOL      0.105981
      6 H3          2.4320   -3.6940    5.0830 hc        1 MOL      0.105981
      7 N1          3.9730   -1.6790    4.4440 n         1 MOL     -0.491862
      8 C3          5.1630   -0.9700    4.0140 c3        1 MOL      0.171198
      9 C4          5.9120   -1.7590    2.9660 c         1 MOL      0.427717
     10 O2          6.5330   -1.2040    2.0760 o         1 MOL     -0.393426
     11 C5          5.9930   -0.6670    5.2070 c3        1 MOL     -0.236222
     12 C6          7.3260    0.0110    4.8100 c         1 MOL      0.739940
     13 O3          7.4080    1.1290    4.2750 o         1 MOL     -0.716757
     14 O4          8.4100   -0.5940    5.0250 o         1 MOL     -0.716757
     15 H4          3.9740   -2.0320    5.3930 hn        1 MOL      0.273892
     16 H5          4.8130   -0.0510    3.5470 h1        1 MOL      0.031509
     17 H6          6.2990   -1.6270    5.6170 hc        1 MOL      0.003411
     18 H7          5.4540   -0.1520    6.0040 hc        1 MOL      0.003411
     19 N2          5.9120   -3.1070    3.0390 n         1 MOL     -0.357716
     20 C7          6.5780   -4.0730    2.1820 c3        1 MOL      0.179164
     21 C8          6.1420   -3.9580    0.6800 c         1 MOL      0.401623
     22 O5          6.8970   -4.0480   -0.2810 o         1 MOL     -0.483017
     23 C9          8.1460   -3.9670    2.4640 c3        1 MOL     -0.373561
     24 H8          5.2990   -3.5400    3.7240 hn        1 MOL      0.231392
     25 H9          6.2850   -5.0330    2.5980 h1        1 MOL      0.032407
     26 H10         8.3100   -2.8900    2.4570 hc        1 MOL      0.101643
     27 H11         8.3330   -4.4340    3.4320 hc        1 MOL      0.101643
     28 H12         8.6880   -4.5430    1.7230 hc        1 MOL      0.101643
     29 N3          4.9020   -3.4880    0.5600 n         1 MOL     -0.531479
     30 C10         4.1300   -3.2400   -0.7290 c3        1 MOL      0.347785
     31 C11         4.8250   -2.1590   -1.5950 c         1 MOL      0.263235
     32 O6          4.7190   -2.0660   -2.8420 o         1 MOL     -0.415394
     33 C12         3.5910   -4.5060   -1.4560 c3        1 MOL     -0.293245
     34 C13         2.7530   -4.2410   -2.6590 c         1 MOL      0.673737
     35 O7          1.8500   -3.3880   -2.5500 o         1 MOL     -0.684823
     36 O8          2.8100   -4.9310   -3.6910 o         1 MOL     -0.684823
     37 H13         4.3970   -3.2260    1.4000 hn        1 MOL      0.225428
     38 H14         3.2250   -2.6840   -0.4720 h1        1 MOL      0.009225
     39 H15         3.0060   -5.1300   -0.7720 hc        1 MOL      0.095289
     40 H16         4.4890   -5.0470   -1.7510 hc        1 MOL      0.095289
     41 N4          5.5550   -1.2470   -0.8780 n         1 MOL      0.001522
     42 C14         6.4560   -0.2260   -1.4110 c3        1 MOL     -0.162049
     43 C15         5.8990    0.8280   -2.3680 c         1 MOL      0.460977
     44 O9          6.3830    1.0870   -3.5140 o         1 MOL     -0.551445
     45 H17         5.4270   -1.3330    0.1300 hn        1 MOL      0.077391
     46 H18         7.1990   -0.7550   -1.9990 h1        1 MOL      0.097059
     47 H19         6.9250    0.3220   -0.5900 h1        1 MOL      0.097059
     48 N5          4.7240    1.4140   -2.0450 n         1 MOL     -0.198566
     49 C16         3.9040    2.3020   -2.8550 c3        1 MOL      0.065755
     50 C17         4.0830    3.8230   -2.5270 c         1 MOL      0.386601
     51 O10         4.6030    4.2010   -1.5030 o         1 MOL     -0.474263
     52 C18         2.4220    1.8930   -2.7330 c3        1 MOL     -0.120333
     53 C19         2.1100    0.4970   -3.1470 c         1 MOL      0.693484
     54 N6          1.9280   -0.4090   -2.2280 n         1 MOL     -0.891835
     55 O11         1.9810    0.2950   -4.3530 o         1 MOL     -0.595483
     56 H20         4.4690    1.3570   -1.0680 hn        1 MOL      0.162934
     57 H21         4.1390    2.2010   -3.9160 h1        1 MOL      0.061280
     58 H22         1.7900    2.5920   -3.2710 hc        1 MOL      0.021409
     59 H23         2.1160    2.0440   -1.7020 hc        1 MOL      0.021409
     60 H24         1.9370   -0.1690   -1.2480 hn        1 MOL      0.388988
     61 H25         1.6710   -1.3400   -2.5380 hn        1 MOL      0.388988
     62 N7          3.7730    4.7050   -3.4740 n         1 MOL     -0.315723
     63 C20         3.5130    6.1270   -3.3020 c3        1 MOL     -0.182825
     64 C21         2.1500    6.4440   -2.6640 c         1 MOL      0.608744
     65 O12         1.0870    5.8560   -2.8750 o         1 MOL     -0.518131
     66 H26         3.4540    4.3490   -4.3600 hn        1 MOL      0.273668
     67 H27         3.5260    6.5280   -4.3110 h1        1 MOL      0.103280
     68 H28         4.3250    6.6200   -2.7620 h1        1 MOL      0.103280
     69 N8          2.1780    7.3410   -1.6460 n         1 MOL     -0.545345
     70 C22         0.9830    7.8510   -0.9300 c3        1 MOL     -0.050642
     71 C23         0.0310    6.8110   -0.2940 c         1 MOL      0.645309
     72 O13        -1.1350    7.0860   -0.1410 o         1 MOL     -0.579756
     73 C24         1.4080    8.8430    0.2180 c3        1 MOL      0.191603
     74 C25         0.4620    9.2580    1.2470 c3        1 MOL     -0.281226
     75 O14         2.5320    8.2830    0.9040 oh        1 MOL     -0.579978
     76 H29         3.0770    7.7090   -1.3520 hn        1 MOL      0.317495
     77 H30         0.3640    8.4020   -1.6310 h1        1 MOL      0.105809
     78 H31         1.8060    9.7830   -0.1730 h1        1 MOL      0.034313
     79 H32         2.6120    8.9790    1.5690 ho        1 MOL      0.390229
     80 H33         0.8840    9.9950    1.9250 hc        1 MOL      0.078567
     81 H34        -0.4240    9.6210    0.7280 hc        1 MOL      0.078567
     82 H35         0.1410    8.4430    1.8940 hc        1 MOL      0.078567
     83 N9          0.4310    5.5550   -0.0310 n         1 MOL     -0.406329
     84 C26        -0.3110    4.5110    0.7730 c3        1 MOL      0.039543
     85 C27        -0.5910    3.2930   -0.1140 c         1 MOL      0.439877
     86 O15         0.0300    3.1580   -1.1320 o         1 MOL     -0.400888
     87 C28         0.3500    4.1840    2.1120 c3        1 MOL      0.142172
     88 C29         1.7280    3.4340    1.8910 c3        1 MOL     -0.269578
     89 C30         0.5070    5.3740    3.0490 c3        1 MOL     -0.264874
     90 C31         2.2860    2.8540    3.2240 c3        1 MOL     -0.122841
     91 H36         1.1900    5.2420   -0.6140 hn        1 MOL      0.304782
     92 H37        -1.3110    4.8660    1.0360 h1        1 MOL      0.046102
     93 H38        -0.3020    3.4440    2.5790 hc        1 MOL     -0.005109
     94 H39         2.4970    4.0590    1.4560 hc        1 MOL      0.137211
     95 H40         1.5070    2.5420    1.3000 hc        1 MOL      0.137211
     96 H41        -0.4970    5.7570    3.2680 hc        1 MOL      0.067075
     97 H42         1.0100    5.0190    3.9460 hc        1 MOL      0.067075
     98 H43         1.1510    6.1640    2.6620 hc        1 MOL      0.067075
     99 H44         2.8770    1.9530    3.1020 hc        1 MOL      0.050513
    100 H45         2.9340    3.5740    3.7240 hc        1 MOL      0.050513
    101 H46         1.5470    2.4780    3.9160 hc        1 MOL      0.050513
    102 N10        -1.5360    2.4190    0.4210 n         1 MOL     -0.519505
    103 C32        -1.9960    1.1790   -0.2490 c3        1 MOL      0.205794
    104 C33        -3.4580    0.8060    0.0030 c         1 MOL      0.631283
    105 O16        -3.7610   -0.3670    0.2920 o         1 MOL     -0.527220
    106 C34        -1.0440    0.0820    0.1480 c3        1 MOL     -0.028144
    107 C35        -1.1290   -1.0930   -0.8070 c         1 MOL      0.482667
    108 O17        -0.3830   -2.0910   -0.5810 o         1 MOL     -0.668666
    109 O18        -1.8730   -1.0470   -1.8560 o         1 MOL     -0.668666
    110 H47        -1.9720    2.6650    1.2920 hn        1 MOL      0.257135
    111 H48        -1.9830    1.3330   -1.3190 h1        1 MOL      0.000351
    112 H49        -1.2580   -0.1990    1.1770 hc        1 MOL      0.022239
    113 H50        -0.0040    0.4100    0.0670 hc        1 MOL      0.022239
    114 N11        -4.3970    1.8020    0.0280 n         1 MOL     -0.579524
    115 C36        -5.8340    1.4910   -0.1710 c3        1 MOL      0.264569
    116 C37        -6.4030    0.3750    0.7980 c         1 MOL      0.238571
    117 O19        -6.4390    0.5550    2.0130 o         1 MOL     -0.454673
    118 C38        -6.6490    2.7780    0.0130 c3        1 MOL     -0.278481
    119 C39        -8.1230    2.5360    0.1500 ca        1 MOL      0.004976
    120 C40        -8.7830    2.3190   -1.0190 ca        1 MOL     -0.057654
    121 C41        -8.7510    2.3940    1.4180 ca        1 MOL     -0.057654
    122 C42       -10.1580    2.0980   -0.9880 ca        1 MOL     -0.197273
    123 C43       -10.0770    2.0290    1.4560 ca        1 MOL     -0.197273
    124 C44       -10.7950    1.8440    0.2450 ca        1 MOL     -0.045412
    125 H51        -4.0670    2.7360   -0.1610 hn        1 MOL      0.295333
    126 H52        -6.0000    1.1370   -1.1940 h1        1 MOL     -0.001238
    127 H53        -6.4740    3.4580   -0.8290 hc        1 MOL      0.109826
    128 H54        -6.3650    3.2920    0.9400 hc        1 MOL      0.109826
    129 H55        -8.3100    2.3710   -1.9870 ha        1 MOL      0.107991
    130 H56        -8.2000    2.5830    2.3340 ha        1 MOL      0.107991
    131 H57       -10.7260    2.0250   -1.9030 ha        1 MOL      0.124302
    132 H58       -10.6340    1.9250    2.3790 ha        1 MOL      0.124302
    133 H59       -11.8420    1.5930    0.2180 ha        1 MOL      0.085399
    134 N12        -6.9640   -0.7020    0.2470 n         1 MOL      0.198834
    135 C45        -7.6070   -1.7600    1.0540 c3        1 MOL      0.048221
    136 C46        -6.7180   -2.6340    1.8600 c         1 MOL      0.288173
    137 O20        -7.1610   -3.0940    2.9430 o         1 MOL     -0.508915
    138 C47        -8.4750   -2.5620    0.0230 c3        1 MOL     -0.221781
    139 C48        -7.6670   -2.4640   -1.3200 c3        1 MOL      0.149783
    140 C49        -7.1640   -0.9640   -1.1600 c3        1 MOL     -0.337786
    141 H60        -8.2670   -1.3390    1.8190 h1        1 MOL      0.067691
    142 H61        -8.6050   -3.6200    0.2640 hc        1 MOL      0.066399
    143 H62        -9.3780   -1.9620   -0.1040 hc        1 MOL      0.066399
    144 H63        -6.8950   -3.2250   -1.2670 hc        1 MOL     -0.007608
    145 H64        -8.2700   -2.5670   -2.2300 hc        1 MOL     -0.007608
    146 H65        -6.2280   -0.9010   -1.7140 h1        1 MOL      0.097007
    147 H66        -8.0070   -0.3760   -1.5130 h1        1 MOL      0.097007
    148 N13        -5.4270   -2.6860    1.5130 n         1 MOL      0.029293
    149 C50        -4.4700   -3.2260    2.5230 c3        1 MOL     -0.355229
    150 C51        -4.1010   -2.2080    3.6650 c         1 MOL      0.491966
    151 O21        -3.9740   -2.5880    4.7970 o         1 MOL     -0.530884
    152 C52        -3.2120   -3.7120    1.8010 c3        1 MOL     -0.042898
    153 C53        -3.6400   -4.8930    0.8560 c3        1 MOL      0.054578
    154 C54        -2.4820   -5.1740   -0.1290 c         1 MOL      0.558909
    155 O22        -1.4820   -5.8440    0.2590 o         1 MOL     -0.700656
    156 O23        -2.4460   -4.6550   -1.2300 o         1 MOL     -0.700656
    157 H67        -5.0510   -2.1880    0.7210 hn        1 MOL      0.187065
    158 H68        -4.9700   -4.0780    2.9790 h1        1 MOL      0.162024
    159 H69        -2.5270   -4.1440    2.5300 hc        1 MOL      0.107365
    160 H70        -2.7410   -2.9620    1.1730 hc        1 MOL      0.107365
    161 H71        -4.5150   -4.6090    0.2800 hc        1 MOL     -0.041225
    162 H72        -3.7730   -5.8040    1.4450 hc        1 MOL     -0.041225
    163 N14        -4.0860   -0.9190    3.3830 n         1 MOL     -0.146913
    164 C55        -3.7750    0.1980    4.3400 c3        1 MOL     -0.179695
    165 H73        -3.1310    0.9270    3.8490 h1        1 MOL      0.084964
    166 H74        -4.7020    0.6820    4.6490 h1        1 MOL      0.084964
    167 H75        -3.2650   -0.2040    5.2150 h1        1 MOL      0.084964
    168 H76        -4.4460   -0.7150    2.4710 hn        1 MOL      0.123334
    169 Ca1        -0.5930   -3.5370   -2.7640 Ca        1 MOL      1.739025
    170 O24         0.3560   -6.1990   -1.6910 oh        1 MOL     -0.811433
    171 H77         0.0870   -6.9820   -2.1810 ho        1 MOL      0.388599
    172 H78        -0.3540   -6.0600   -1.0670 ho        1 MOL      0.388599
    173 O25         0.7340   -3.9660   -5.1500 oh        1 MOL     -0.811433
    174 H79         1.3570   -4.4500   -4.6070 ho        1 MOL      0.388599
    175 H80         1.2180   -3.7890   -5.9570 ho        1 MOL      0.388599
    176 O26        -1.3820   -5.9690   -4.4720 oh        1 MOL     -0.811433
    177 O27        -2.8800   -3.2220   -4.1540 oh        1 MOL     -0.811433
    178 H81        -0.9280   -6.7560   -4.7690 ho        1 MOL      0.388599
    179 H82        -3.4750   -3.9130   -4.4440 ho        1 MOL      0.388599
    180 H83        -2.3070   -6.1910   -4.5490 ho        1 MOL      0.388599
    181 H84        -3.4570   -2.5230   -3.8330 ho        1 MOL      0.388599
    182 O28        -0.3400   -1.3020   -4.1040 oh        1 MOL     -0.811433
    183 H85         0.3530   -0.7040   -4.3840 ho        1 MOL      0.388599
    184 H86        -0.8530   -0.8000   -3.4680 ho        1 MOL      0.388599
@<TRIPOS>BOND
     1    1    2 1   
     2    1    4 1   
     3    1    5 1   
     4    1    6 1   
     5    2    3 2   
     6    2    7 1   
     7    7    8 1   
     8    7   15 1   
     9    8    9 1   
    10    8   11 1   
    11    8   16 1   
    12    9   10 2   
    13    9   19 1   
    14   11   12 1   
    15   11   17 1   
    16   11   18 1   
    17   12   13 1   
    18   12   14 1   
    19   19   20 1   
    20   19   24 1   
    21   20   21 1   
    22   20   23 1   
    23   20   25 1   
    24   21   22 2   
    25   21   29 1   
    26   23   26 1   
    27   23   27 1   
    28   23   28 1   
    29   29   30 1   
    30   29   37 1   
    31   30   31 1   
    32   30   33 1   
    33   30   38 1   
    34   31   32 2   
    35   31   41 1   
    36   33   34 1   
    37   33   39 1   
    38   33   40 1   
    39   34   35 1   
    40   34   36 1   
    41   41   42 1   
    42   41   45 1   
    43   42   43 1   
    44   42   46 1   
    45   42   47 1   
    46   43   44 2   
    47   43   48 1   
    48   48   49 1   
    49   48   56 1   
    50   49   50 1   
    51   49   52 1   
    52   49   57 1   
    53   50   51 2   
    54   50   62 1   
    55   52   53 1   
    56   52   58 1   
    57   52   59 1   
    58   53   54 1   
    59   53   55 2   
    60   54   60 1   
    61   54   61 1   
    62   62   63 1   
    63   62   66 1   
    64   63   64 1   
    65   63   67 1   
    66   63   68 1   
    67   64   65 2   
    68   64   69 1   
    69   69   70 1   
    70   69   76 1   
    71   70   71 1   
    72   70   73 1   
    73   70   77 1   
    74   71   72 2   
    75   71   83 1   
    76   73   74 1   
    77   73   75 1   
    78   73   78 1   
    79   74   80 1   
    80   74   81 1   
    81   74   82 1   
    82   75   79 1   
    83   83   84 1   
    84   83   91 1   
    85   84   85 1   
    86   84   87 1   
    87   84   92 1   
    88   85   86 2   
    89   85  102 1   
    90   87   88 1   
    91   87   89 1   
    92   87   93 1   
    93   88   90 1   
    94   88   94 1   
    95   88   95 1   
    96   89   96 1   
    97   89   97 1   
    98   89   98 1   
    99   90   99 1   
   100   90  100 1   
   101   90  101 1   
   102  102  103 1   
   103  102  110 1   
   104  103  104 1   
   105  103  106 1   
   106  103  111 1   
   107  104  105 2   
   108  104  114 1   
   109  106  107 1   
   110  106  112 1   
   111  106  113 1   
   112  107  108 1   
   113  107  109 1   
   114  114  115 1   
   115  114  125 1   
   116  115  116 1   
   117  115  118 1   
   118  115  126 1   
   119  116  117 2   
   120  116  134 1   
   121  118  119 1   
   122  118  127 1   
   123  118  128 1   
   124  119  120 ar  
   125  119  121 ar  
   126  120  122 ar  
   127  120  129 1   
   128  121  123 ar  
   129  121  130 1   
   130  122  124 ar  
   131  122  131 1   
   132  123  124 ar  
   133  123  132 1   
   134  124  133 1   
   135  134  135 1   
   136  134  140 1   
   137  135  136 1   
   138  135  138 1   
   139  135  141 1   
   140  136  137 2   
   141  136  148 1   
   142  138  139 1   
   143  138  142 1   
   144  138  143 1   
   145  139  140 1   
   146  139  144 1   
   147  139  145 1   
   148  140  146 1   
   149  140  147 1   
   150  148  149 1   
   151  148  157 1   
   152  149  150 1   
   153  149  152 1   
   154  149  158 1   
   155  150  151 2   
   156  150  163 1   
   157  152  153 1   
   158  152  159 1   
   159  152  160 1   
   160  153  154 1   
   161  153  161 1   
   162  153  162 1   
   163  154  155 1   
   164  154  156 1   
   165  163  164 1   
   166  163  168 1   
   167  164  165 1   
   168  164  166 1   
   169  164  167 1   
   170  170  171 1   
   171  170  172 1   
   172  173  174 1   
   173  173  175 1   
   174  176  178 1   
   175  176  180 1   
   176  177  179 1   
   177  177  181 1   
   178  182  183 1   
   179  182  184 1   
@<TRIPOS>SUBSTRUCTURE
     1 MOL         1 TEMP              0 ****  ****    0 ROOT
