@<TRIPOS>MOLECULE
MOL
  195   189     1     0     0
SMALL
resp


@<TRIPOS>ATOM
      1 C1          3.6320    6.5110   -1.2580 c3        1 MOL     -0.419018
      2 C2          5.1600    6.3110   -0.9950 c         1 MOL      0.670039
      3 O1          5.7270    6.8600   -0.0390 o         1 MOL     -0.556021
      4 H1          3.3310    5.9150   -2.1200 hc        1 MOL      0.111456
      5 H2          3.0680    6.1910   -0.3810 hc        1 MOL      0.111456
      6 H3          3.4310    7.5640   -1.4560 hc        1 MOL      0.111456
      7 N1          5.8170    5.5030   -1.8230 n         1 MOL     -0.681959
      8 C3          7.2320    5.0530   -1.7350 c3        1 MOL      0.483726
      9 C4          7.4130    4.0300   -0.5680 c         1 MOL      0.322443
     10 O2          6.6570    3.9960    0.3950 o         1 MOL     -0.438520
     11 C5          8.1930    6.3180   -1.7430 c3        1 MOL     -0.500081
     12 C6          9.6200    5.9840   -2.1490 c         1 MOL      0.760405
     13 O3         10.6120    6.3520   -1.4450 o         1 MOL     -0.727257
     14 O4          9.7440    5.2330   -3.1450 o         1 MOL     -0.727257
     15 H4          5.2370    5.0110   -2.4930 hn        1 MOL      0.314050
     16 H5          7.4540    4.4060   -2.5800 h1        1 MOL     -0.036842
     17 H6          8.1110    6.6980   -0.7240 hc        1 MOL      0.137519
     18 H7          7.8220    6.9830   -2.5220 hc        1 MOL      0.137519
     19 N2          8.6070    3.3910   -0.6080 n         1 MOL     -0.287154
     20 C7          9.2720    2.5130    0.3780 c3        1 MOL      0.095446
     21 C8          8.3710    1.2620    0.7450 c         1 MOL      0.434632
     22 O5          8.3370    0.8420    1.9250 o         1 MOL     -0.543214
     23 C9          9.6660    3.2100    1.7070 c3        1 MOL     -0.239637
     24 C10        10.4170    4.4720    1.2850 c3        1 MOL      0.403103
     25 C11        11.3100    4.9190    2.4540 c3        1 MOL     -0.224831
     26 C12        11.9510    6.2560    2.1490 c3        1 MOL      0.334203
     27 N3         13.3400    6.4120    2.6100 n4        1 MOL     -0.574519
     28 H8          9.1530    3.4890   -1.4580 hn        1 MOL      0.220384
     29 H9         10.2050    2.0970   -0.0290 h1        1 MOL      0.053722
     30 H10        10.2690    2.5670    2.3440 hc        1 MOL      0.080558
     31 H11         8.7320    3.5090    2.1750 hc        1 MOL      0.080558
     32 H12         9.8380    5.3170    0.9190 hc        1 MOL     -0.069334
     33 H13        11.1200    4.1510    0.5040 hc        1 MOL     -0.069334
     34 H14        12.0000    4.1080    2.6770 hc        1 MOL      0.022840
     35 H15        10.7780    5.0740    3.3870 hc        1 MOL      0.022840
     36 H16        11.2870    7.0760    2.4010 hx        1 MOL      0.022192
     37 H17        11.9400    6.3560    1.0650 hx        1 MOL      0.022192
     38 H18        14.0240    6.7190    1.9300 hn        1 MOL      0.366317
     39 H19        13.3170    6.9790    3.4510 hn        1 MOL      0.366317
     40 H20        13.7790    5.5160    2.7410 hn        1 MOL      0.366317
     41 N4          7.6170    0.6460   -0.1470 n         1 MOL     -0.479218
     42 C13         6.6670   -0.4740    0.0880 c3        1 MOL      0.383357
     43 C14         6.6630   -1.3890   -1.1650 c         1 MOL      0.454586
     44 O6          6.4190   -0.9100   -2.2970 o         1 MOL     -0.537789
     45 C15         5.1850    0.0930    0.2630 c3        1 MOL     -0.140541
     46 C16         4.0900   -0.9990    0.5850 c         1 MOL      0.728495
     47 O7          4.3210   -2.1280    1.0070 o         1 MOL     -0.761810
     48 O8          2.8910   -0.6450    0.6590 o         1 MOL     -0.761810
     49 H21         7.7850    1.0570   -1.0510 hn        1 MOL      0.225305
     50 H22         7.0050   -1.0240    0.9630 h1        1 MOL      0.004818
     51 H23         4.9480    0.6510   -0.6420 hc        1 MOL      0.050354
     52 H24         5.2550    0.8650    1.0290 hc        1 MOL      0.050354
     53 N5          6.9140   -2.7470   -1.0980 n         1 MOL     -0.501139
     54 C17         7.1190   -3.5060    0.1810 c3        1 MOL     -0.030879
     55 C18         6.4700   -4.8950    0.2180 c         1 MOL      0.516639
     56 O9          7.0640   -5.9310   -0.0910 o         1 MOL     -0.557035
     57 H25         6.8600   -3.3520   -1.9090 hn        1 MOL      0.324505
     58 H26         6.5690   -2.9900    0.9670 h1        1 MOL      0.083404
     59 H27         8.1370   -3.5470    0.5610 h1        1 MOL      0.083404
     60 N6          5.2450   -4.9590    0.8050 n         1 MOL     -0.385306
     61 C19         4.4390   -6.2140    0.9880 c3        1 MOL      0.223159
     62 C20         3.0060   -6.0020    0.5250 c         1 MOL      0.481161
     63 O10         2.4790   -4.9220    0.7910 o         1 MOL     -0.533896
     64 C21         4.4550   -6.7150    2.4420 c3        1 MOL     -0.144156
     65 C22         4.0490   -5.6280    3.4320 c         1 MOL      0.667931
     66 O11         3.7910   -4.4610    3.1230 o         1 MOL     -0.681341
     67 O12         3.9410   -6.0010    4.6130 o         1 MOL     -0.681341
     68 H28         4.8080   -4.1370    1.1960 hn        1 MOL      0.174373
     69 H29         4.7990   -7.0120    0.3510 h1        1 MOL     -0.052698
     70 H30         5.4230   -7.1560    2.6600 hc        1 MOL      0.031372
     71 H31         3.7580   -7.5620    2.4280 hc        1 MOL      0.031372
     72 N7          2.5180   -6.9440   -0.2070 n         1 MOL     -0.335381
     73 C23         1.1410   -7.0570   -0.5450 c3        1 MOL     -0.228284
     74 C24         0.4100   -5.8790   -1.2030 c         1 MOL      0.572936
     75 O13        -0.7830   -5.5200   -0.9930 o         1 MOL     -0.619317
     76 H32         3.0950   -7.7750   -0.1950 hn        1 MOL      0.314432
     77 H33         0.6180   -7.2190    0.3910 h1        1 MOL      0.122357
     78 H34         1.0560   -7.9260   -1.1930 h1        1 MOL      0.122357
     79 N8          1.1770   -5.0470   -1.8890 n         1 MOL     -0.273931
     80 C25         0.8060   -3.8290   -2.6360 c3        1 MOL     -0.079446
     81 C26         0.6880   -2.5900   -1.6710 c         1 MOL      0.359679
     82 O14         1.0410   -2.6200   -0.4960 o         1 MOL     -0.430476
     83 C27         1.7730   -3.5340   -3.7510 c3        1 MOL      0.282571
     84 C28         3.1450   -2.9630   -3.2850 c3        1 MOL     -0.158818
     85 O15         2.0230   -4.7860   -4.3550 oh        1 MOL     -0.608655
     86 H35         2.1500   -5.2860   -1.7930 hn        1 MOL      0.228294
     87 H36        -0.1530   -3.9630   -3.1330 h1        1 MOL      0.105936
     88 H37         1.3100   -2.8670   -4.4730 h1        1 MOL      0.013223
     89 H38         1.4850   -4.8280   -5.1440 ho        1 MOL      0.394418
     90 H39         3.1740   -1.9340   -2.9270 hc        1 MOL      0.064138
     91 H40         3.6780   -3.5250   -2.5210 hc        1 MOL      0.064138
     92 H41         3.7780   -2.8130   -4.1580 hc        1 MOL      0.064138
     93 N9          0.1300   -1.4810   -2.2000 n         1 MOL     -0.240346
     94 C29         0.0250   -0.1930   -1.4940 c3        1 MOL     -0.191378
     95 C30        -1.2420    0.0340   -0.7030 c         1 MOL      0.477729
     96 O16        -1.3890    0.8170    0.2690 o         1 MOL     -0.550104
     97 C31         0.4450    1.0800   -2.3310 c3        1 MOL     -0.012026
     98 C32        -0.5310    1.2400   -3.5650 c3        1 MOL      0.205378
     99 C33         1.9660    1.0460   -2.7500 c3        1 MOL      0.017480
    100 C34        -0.5130    2.4960   -4.3230 c3        1 MOL     -0.238596
    101 H42        -0.2990   -1.4610   -3.1110 hn        1 MOL      0.209799
    102 H43         0.8190   -0.3060   -0.7530 h1        1 MOL      0.160102
    103 H44         0.2510    1.9090   -1.6420 hc        1 MOL      0.063274
    104 H45        -1.5600    1.0760   -3.2180 hc        1 MOL     -0.029636
    105 H46        -0.3700    0.4610   -4.3150 hc        1 MOL     -0.029636
    106 H47         2.2580    2.0300   -3.1030 hc        1 MOL     -0.005722
    107 H48         2.5890    0.7790   -1.8920 hc        1 MOL     -0.005722
    108 H49         2.2150    0.2940   -3.5040 hc        1 MOL     -0.005722
    109 H50        -0.1730    3.3310   -3.7110 hc        1 MOL      0.051207
    110 H51         0.2660    2.4330   -5.0820 hc        1 MOL      0.051207
    111 H52        -1.4730    2.6990   -4.7980 hc        1 MOL      0.051207
    112 N10        -2.2980   -0.7180   -1.1200 n         1 MOL     -0.187466
    113 C35        -3.6170   -0.8790   -0.4530 c3        1 MOL     -0.204086
    114 C36        -4.7370   -1.0840   -1.4530 c         1 MOL      0.646900
    115 O17        -4.3880   -1.4980   -2.5720 o         1 MOL     -0.533092
    116 C37        -3.6550   -2.0030    0.5980 c3        1 MOL      0.467973
    117 C38        -3.6370   -3.3700    0.0520 c3        1 MOL     -0.591826
    118 O18        -2.5030   -1.8610    1.3780 oh        1 MOL     -0.709409
    119 H53        -2.1000   -1.3470   -1.8770 hn        1 MOL      0.156234
    120 H54        -3.9050    0.0480    0.0490 h1        1 MOL      0.105303
    121 H55        -4.5280   -1.7470    1.2010 h1        1 MOL     -0.000379
    122 H56        -2.7810   -1.1950    2.0120 ho        1 MOL      0.410968
    123 H57        -2.6980   -3.4950   -0.4650 hc        1 MOL      0.175617
    124 H58        -3.5990   -4.0450    0.9110 hc        1 MOL      0.175617
    125 H59        -4.4310   -3.5960   -0.6580 hc        1 MOL      0.175617
    126 N11        -6.0040   -0.8470   -1.0890 n         1 MOL     -0.578955
    127 C39        -7.1580   -1.1610   -1.9370 c3        1 MOL      0.063843
    128 C40        -8.3450   -0.1620   -1.8410 c         1 MOL      0.589759
    129 O19        -8.7990    0.3690   -2.8330 o         1 MOL     -0.559133
    130 C41        -7.6410   -2.5970   -1.5570 c3        1 MOL      0.133461
    131 C42        -8.9400   -3.0670   -2.1170 c3        1 MOL     -0.180498
    132 O20        -7.8230   -2.5700   -0.1260 oh        1 MOL     -0.633293
    133 H60        -6.2100   -0.6310   -0.1160 hn        1 MOL      0.309558
    134 H61        -6.7840   -1.2140   -2.9670 h1        1 MOL      0.089550
    135 H62        -6.9130   -3.3390   -1.8740 h1        1 MOL      0.072611
    136 H63        -7.5440   -3.4180    0.2130 ho        1 MOL      0.417408
    137 H64        -8.9700   -2.9590   -3.2040 hc        1 MOL      0.055070
    138 H65        -9.2060   -4.0880   -1.8770 hc        1 MOL      0.055070
    139 H66        -9.7220   -2.4180   -1.7180 hc        1 MOL      0.055070
    140 N12        -8.7700    0.0530   -0.6050 n         1 MOL     -0.415757
    141 C43        -9.8960    0.9630   -0.2630 c3        1 MOL      0.062275
    142 C44        -9.4750    1.6930    1.0670 c         1 MOL      0.409346
    143 O21        -8.7770    1.1600    1.9370 o         1 MOL     -0.476393
    144 C45       -11.1070    0.0720   -0.0380 c3        1 MOL     -0.135949
    145 C46       -12.4150    0.8180    0.1500 c3        1 MOL      0.167262
    146 C47       -13.5830   -0.0860    0.2970 c3        1 MOL     -0.039302
    147 C48       -14.8370    0.6640    0.7290 c3        1 MOL     -0.034056
    148 N13       -15.3430    1.4780   -0.3840 n4        1 MOL     -0.380961
    149 H67        -8.1280   -0.3600    0.0710 hn        1 MOL      0.257327
    150 H68       -10.0740    1.6350   -1.0970 h1        1 MOL      0.093318
    151 H69       -10.9130   -0.4670    0.9000 hc        1 MOL      0.066681
    152 H70       -11.2830   -0.6360   -0.8420 hc        1 MOL      0.066681
    153 H71       -12.5140    1.5030   -0.6950 hc        1 MOL     -0.034272
    154 H72       -12.3510    1.3910    1.0790 hc        1 MOL     -0.034272
    155 H73       -13.3300   -0.8670    1.0140 hc        1 MOL      0.021356
    156 H74       -13.9270   -0.5600   -0.6190 hc        1 MOL      0.021356
    157 H75       -14.6960    1.2820    1.6160 hx        1 MOL      0.111219
    158 H76       -15.5530   -0.1380    0.9100 hx        1 MOL      0.111219
    159 H77       -14.6310    2.1360   -0.6750 hn        1 MOL      0.331535
    160 H78       -15.4590    0.8890   -1.1950 hn        1 MOL      0.331535
    161 H79       -16.2400    1.9050   -0.2020 hn        1 MOL      0.331535
    162 N14        -9.8410    2.9600    1.0980 n         1 MOL     -0.290984
    163 C49        -9.4240    3.7770    2.2500 c3        1 MOL      0.313819
    164 C50        -7.8870    3.8320    2.4470 c         1 MOL      0.221411
    165 O22        -7.4100    3.4590    3.5240 o         1 MOL     -0.505256
    166 C51        -9.9940    5.1900    2.2930 c3        1 MOL     -0.134073
    167 C52       -11.5260    5.1100    2.3590 c3        1 MOL     -0.199004
    168 C53       -12.1070    5.1950    0.9090 c         1 MOL      0.646241
    169 O23       -12.7790    4.1810    0.5620 o         1 MOL     -0.678172
    170 O24       -11.9920    6.2450    0.2060 o         1 MOL     -0.678172
    171 H80       -10.5200    3.3260    0.4460 hn        1 MOL      0.183597
    172 H81        -9.8410    3.2450    3.1080 h1        1 MOL      0.017804
    173 H82        -9.6730    5.6930    1.3770 hc        1 MOL      0.073947
    174 H83        -9.6510    5.6830    3.2030 hc        1 MOL      0.073947
    175 H84       -11.8830    6.0460    2.8110 hc        1 MOL      0.044416
    176 H85       -11.8690    4.2770    2.9750 hc        1 MOL      0.044416
    177 N15        -7.0240    4.1320    1.4620 n         1 MOL     -0.268630
    178 C54        -7.1290    4.5980    0.0790 c3        1 MOL     -0.162436
    179 H86        -7.4000    3.7610   -0.5660 h1        1 MOL      0.086533
    180 H87        -7.8950    5.3690    0.0120 h1        1 MOL      0.086533
    181 H88        -6.1710    5.0070   -0.2420 h1        1 MOL      0.086533
    182 H89        -6.0640    3.9900    1.7470 hn        1 MOL      0.282790
    183 Ca1         2.0120   -2.7230    2.0630 Ca        1 MOL      1.801174
    184 O25         2.7700   -0.8640    3.8720 oh        1 MOL     -0.882327
    185 H90         2.9550   -0.0200    3.4760 ho        1 MOL      0.437319
    186 H91         3.0580   -0.7700    4.7770 ho        1 MOL      0.437319
    187 O26        -0.4250   -4.0120    1.5170 oh        1 MOL     -0.882327
    188 H92        -0.8360   -4.7970    1.1590 ho        1 MOL      0.437319
    189 H93        -0.9320   -3.2880    1.1540 ho        1 MOL      0.437319
    190 O27         0.8480   -3.4150    4.3400 oh        1 MOL     -0.882327
    191 H94         1.0710   -3.4890    5.2680 ho        1 MOL      0.437319
    192 H95        -0.1130   -3.4450    4.3260 ho        1 MOL      0.437319
    193 O28         0.0280   -1.0300    2.1710 oh        1 MOL     -0.882327
    194 H96        -0.8170   -1.2280    1.7670 ho        1 MOL      0.437319
    195 H97        -0.0010   -0.0840    2.3320 ho        1 MOL      0.437319
@<TRIPOS>BOND
     1    1    2 1   
     2    1    4 1   
     3    1    5 1   
     4    1    6 1   
     5    2    3 2   
     6    2    7 1   
     7    7    8 1   
     8    7   15 1   
     9    8    9 1   
    10    8   11 1   
    11    8   16 1   
    12    9   10 2   
    13    9   19 1   
    14   11   12 1   
    15   11   17 1   
    16   11   18 1   
    17   12   13 1   
    18   12   14 1   
    19   19   20 1   
    20   19   28 1   
    21   20   21 1   
    22   20   23 1   
    23   20   29 1   
    24   21   22 2   
    25   21   41 1   
    26   23   24 1   
    27   23   30 1   
    28   23   31 1   
    29   24   25 1   
    30   24   32 1   
    31   24   33 1   
    32   25   26 1   
    33   25   34 1   
    34   25   35 1   
    35   26   27 1   
    36   26   36 1   
    37   26   37 1   
    38   27   38 1   
    39   27   39 1   
    40   27   40 1   
    41   41   42 1   
    42   41   49 1   
    43   42   43 1   
    44   42   45 1   
    45   42   50 1   
    46   43   44 2   
    47   43   53 1   
    48   45   46 1   
    49   45   51 1   
    50   45   52 1   
    51   46   47 1   
    52   46   48 1   
    53   53   54 1   
    54   53   57 1   
    55   54   55 1   
    56   54   58 1   
    57   54   59 1   
    58   55   56 2   
    59   55   60 1   
    60   60   61 1   
    61   60   68 1   
    62   61   62 1   
    63   61   64 1   
    64   61   69 1   
    65   62   63 2   
    66   62   72 1   
    67   64   65 1   
    68   64   70 1   
    69   64   71 1   
    70   65   66 1   
    71   65   67 1   
    72   72   73 1   
    73   72   76 1   
    74   73   74 1   
    75   73   77 1   
    76   73   78 1   
    77   74   75 2   
    78   74   79 1   
    79   79   80 1   
    80   79   86 1   
    81   80   81 1   
    82   80   83 1   
    83   80   87 1   
    84   81   82 2   
    85   81   93 1   
    86   83   84 1   
    87   83   85 1   
    88   83   88 1   
    89   84   90 1   
    90   84   91 1   
    91   84   92 1   
    92   85   89 1   
    93   93   94 1   
    94   93  101 1   
    95   94   95 1   
    96   94   97 1   
    97   94  102 1   
    98   95   96 2   
    99   95  112 1   
   100   97   98 1   
   101   97   99 1   
   102   97  103 1   
   103   98  100 1   
   104   98  104 1   
   105   98  105 1   
   106   99  106 1   
   107   99  107 1   
   108   99  108 1   
   109  100  109 1   
   110  100  110 1   
   111  100  111 1   
   112  112  113 1   
   113  112  119 1   
   114  113  114 1   
   115  113  116 1   
   116  113  120 1   
   117  114  115 2   
   118  114  126 1   
   119  116  117 1   
   120  116  118 1   
   121  116  121 1   
   122  117  123 1   
   123  117  124 1   
   124  117  125 1   
   125  118  122 1   
   126  126  127 1   
   127  126  133 1   
   128  127  128 1   
   129  127  130 1   
   130  127  134 1   
   131  128  129 2   
   132  128  140 1   
   133  130  131 1   
   134  130  132 1   
   135  130  135 1   
   136  131  137 1   
   137  131  138 1   
   138  131  139 1   
   139  132  136 1   
   140  140  141 1   
   141  140  149 1   
   142  141  142 1   
   143  141  144 1   
   144  141  150 1   
   145  142  143 2   
   146  142  162 1   
   147  144  145 1   
   148  144  151 1   
   149  144  152 1   
   150  145  146 1   
   151  145  153 1   
   152  145  154 1   
   153  146  147 1   
   154  146  155 1   
   155  146  156 1   
   156  147  148 1   
   157  147  157 1   
   158  147  158 1   
   159  148  159 1   
   160  148  160 1   
   161  148  161 1   
   162  162  163 1   
   163  162  171 1   
   164  163  164 1   
   165  163  166 1   
   166  163  172 1   
   167  164  165 2   
   168  164  177 1   
   169  166  167 1   
   170  166  173 1   
   171  166  174 1   
   172  167  168 1   
   173  167  175 1   
   174  167  176 1   
   175  168  169 1   
   176  168  170 1   
   177  177  178 1   
   178  177  182 1   
   179  178  179 1   
   180  178  180 1   
   181  178  181 1   
   182  184  185 1   
   183  184  186 1   
   184  187  188 1   
   185  187  189 1   
   186  190  191 1   
   187  190  192 1   
   188  193  194 1   
   189  193  195 1   
@<TRIPOS>SUBSTRUCTURE
     1 MOL         1 TEMP              0 ****  ****    0 ROOT
