@<TRIPOS>MOLECULE
MOL
  175   173     1     0     0
SMALL
resp


@<TRIPOS>ATOM
      1 C1         -7.1030    7.8580    2.1100 c3        1 MOL     -0.387445
      2 C2         -7.8690    7.1010    0.9360 c         1 MOL      0.611404
      3 O1         -7.7520    7.4570   -0.2510 o         1 MOL     -0.551730
      4 H1         -6.7350    7.1300    2.8320 hc        1 MOL      0.097168
      5 H2         -6.2620    8.4150    1.6960 hc        1 MOL      0.097168
      6 H3         -7.7860    8.5470    2.6060 hc        1 MOL      0.097168
      7 N1         -8.5260    5.9250    1.2360 n         1 MOL     -0.509504
      8 C3         -9.1890    5.0990    0.2400 c3        1 MOL      0.237914
      9 C4         -8.3560    3.9990   -0.4620 c         1 MOL      0.573604
     10 O2         -8.8240    3.4950   -1.4820 o         1 MOL     -0.551418
     11 C5        -10.3860    4.4290    0.8370 c3        1 MOL     -0.365903
     12 C6        -11.6410    4.7310    0.1020 c         1 MOL      0.755942
     13 O3        -12.5960    3.9770    0.3680 o         1 MOL     -0.726302
     14 O4        -11.7720    5.6520   -0.7590 o         1 MOL     -0.726302
     15 H4         -8.6370    5.7550    2.2280 hn        1 MOL      0.271176
     16 H5         -9.4370    5.7330   -0.6090 h1        1 MOL      0.059270
     17 H6        -10.4870    4.9060    1.8180 hc        1 MOL      0.058851
     18 H7        -10.2310    3.3640    1.0120 hc        1 MOL      0.058851
     19 N2         -7.1010    3.7930   -0.1040 n         1 MOL     -0.586641
     20 C7         -6.2470    2.9130   -0.8860 c3        1 MOL      0.411969
     21 C8         -5.1900    2.2760   -0.0060 c         1 MOL      0.484618
     22 O5         -4.9000    2.8820    1.0280 o         1 MOL     -0.543319
     23 C9         -5.6110    3.7010   -2.0210 c3        1 MOL     -0.188102
     24 H8         -6.6870    4.1080    0.7500 hn        1 MOL      0.267302
     25 H9         -6.8140    2.0760   -1.3090 h1        1 MOL     -0.059588
     26 H10        -5.2040    4.6440   -1.6710 hc        1 MOL      0.051849
     27 H11        -4.8370    3.1700   -2.5700 hc        1 MOL      0.051849
     28 H12        -6.3820    3.9890   -2.7330 hc        1 MOL      0.051849
     29 N3         -4.7400    1.0410   -0.3190 n         1 MOL     -0.488186
     30 C10        -5.2010   -0.0070   -1.2300 c3        1 MOL     -0.014604
     31 C11        -5.3740   -1.3680   -0.4450 c         1 MOL      0.542620
     32 O6         -4.6030   -1.7790    0.3950 o         1 MOL     -0.512188
     33 C12        -4.3050   -0.0550   -2.4950 c3        1 MOL     -0.099921
     34 C13        -2.7700   -0.3530   -2.1270 c         1 MOL      0.558208
     35 O7         -2.1260    0.4230   -1.3390 o         1 MOL     -0.681115
     36 O8         -2.2860   -1.5170   -2.3690 o         1 MOL     -0.681115
     37 H13        -3.8490    0.8040    0.0710 hn        1 MOL      0.331089
     38 H14        -6.1960    0.2300   -1.6040 h1        1 MOL      0.089892
     39 H15        -4.4120    0.8930   -3.0320 hc        1 MOL      0.030165
     40 H16        -4.7320   -0.7600   -3.2020 hc        1 MOL      0.030165
     41 N4         -6.3810   -2.1110   -0.8950 n         1 MOL     -0.450304
     42 C14        -6.7190   -3.3820   -0.2530 c3        1 MOL      0.111641
     43 C15        -6.8000   -4.5690   -1.3260 c         1 MOL      0.529972
     44 O9         -7.8530   -4.9910   -1.6220 o         1 MOL     -0.532504
     45 H17        -6.9770   -1.7560   -1.6310 hn        1 MOL      0.303548
     46 H18        -7.7230   -3.3020    0.1700 h1        1 MOL      0.032563
     47 H19        -6.0270   -3.6730    0.5370 h1        1 MOL      0.032563
     48 N5         -5.6400   -5.0420   -1.7810 n         1 MOL     -0.479334
     49 C16        -4.2750   -4.7000   -1.2630 c3        1 MOL      0.068417
     50 C17        -4.0080   -5.4480    0.0500 c         1 MOL      0.492602
     51 O10        -4.3810   -6.6610    0.0890 o         1 MOL     -0.571415
     52 C18        -3.2710   -4.9990   -2.3600 c3        1 MOL     -0.229787
     53 C19        -1.8500   -4.4830   -2.0460 c         1 MOL      0.496733
     54 N6         -0.9560   -4.4490   -2.9370 n         1 MOL     -0.702404
     55 O11        -1.4650   -4.1760   -0.8980 o         1 MOL     -0.389755
     56 H20        -5.6310   -5.7520   -2.4930 hn        1 MOL      0.301323
     57 H21        -4.2520   -3.6460   -0.9780 h1        1 MOL      0.061930
     58 H22        -3.5990   -4.5330   -3.2860 hc        1 MOL      0.092555
     59 H23        -3.2160   -6.0870   -2.4620 hc        1 MOL      0.092555
     60 H24        -1.1960   -4.8980   -3.8120 hn        1 MOL      0.341350
     61 H25        -0.0600   -4.0040   -2.7720 hn        1 MOL      0.341350
     62 N7         -3.4080   -4.8220    1.0590 n         1 MOL     -0.066374
     63 C20        -3.0990   -5.2830    2.3930 c3        1 MOL     -0.237313
     64 C21        -1.6100   -5.5580    2.6500 c         1 MOL      0.556921
     65 O12        -1.3460   -6.1430    3.7290 o         1 MOL     -0.585084
     66 H26        -3.0120   -3.9320    0.7920 hn        1 MOL      0.092515
     67 H27        -3.5460   -6.2720    2.5010 h1        1 MOL      0.102898
     68 H28        -3.5760   -4.6320    3.1250 h1        1 MOL      0.102898
     69 N8         -0.7450   -5.0840    1.8090 n         1 MOL     -0.176577
     70 C22         0.6930   -5.1400    1.9830 c3        1 MOL     -0.246234
     71 C23         1.3760   -3.8340    1.8330 c         1 MOL      0.577020
     72 O13         0.9080   -3.0650    0.9510 o         1 MOL     -0.669859
     73 C24         1.3360   -6.3010    1.1400 c3        1 MOL      0.364769
     74 C25         0.8520   -7.7020    1.6120 c3        1 MOL     -0.468141
     75 O14         0.9510   -6.1170   -0.1680 oh        1 MOL     -0.630889
     76 H29        -1.1670   -4.8030    0.9340 hn        1 MOL      0.155241
     77 H30         0.8800   -5.4690    2.9970 h1        1 MOL      0.081250
     78 H31         2.4100   -6.1880    1.1470 h1        1 MOL      0.010178
     79 H32         1.6310   -5.5110   -0.4540 ho        1 MOL      0.519968
     80 H33         1.3980   -8.5240    1.1570 hc        1 MOL      0.122753
     81 H34         0.8890   -7.7690    2.7020 hc        1 MOL      0.122753
     82 H35        -0.2360   -7.7180    1.4830 hc        1 MOL      0.122753
     83 N9          2.4370   -3.5660    2.5450 n         1 MOL     -0.334793
     84 C26         3.2950   -2.3170    2.3840 c3        1 MOL      0.034017
     85 C27         4.2660   -2.6570    1.2450 c         1 MOL      0.233850
     86 O15         5.1520   -3.5250    1.4220 o         1 MOL     -0.542075
     87 C28         3.9890   -1.8170    3.6880 c3        1 MOL      0.213273
     88 C29         4.7920   -0.4990    3.2630 c3        1 MOL      0.238426
     89 C30         2.9850   -1.7060    4.8050 c3        1 MOL     -0.443819
     90 C31         5.4440    0.1050    4.5380 c3        1 MOL     -0.334345
     91 H36         2.6820   -4.2350    3.2570 hn        1 MOL      0.264100
     92 H37         2.6750   -1.5070    1.9880 h1        1 MOL      0.045304
     93 H38         4.8420   -2.4350    3.9800 hc        1 MOL     -0.021853
     94 H39         4.1570    0.3010    2.9060 hc        1 MOL     -0.043095
     95 H40         5.5540   -0.7010    2.5160 hc        1 MOL     -0.043095
     96 H41         2.1320   -1.1240    4.4570 hc        1 MOL      0.108176
     97 H42         2.6120   -2.6760    5.1240 hc        1 MOL      0.108176
     98 H43         3.3700   -1.1310    5.6400 hc        1 MOL      0.108176
     99 H44         5.8720   -0.7210    5.1110 hc        1 MOL      0.065824
    100 H45         6.2960    0.7730    4.4720 hc        1 MOL      0.065824
    101 H46         4.7760    0.5750    5.2700 hc        1 MOL      0.065824
    102 N10         4.0270   -2.0690    0.0200 n         1 MOL      0.024732
    103 C32         4.7220   -2.5230   -1.1770 c3        1 MOL      0.134759
    104 C33         5.8570   -1.5210   -1.6530 c         1 MOL      0.369438
    105 O16         6.5320   -1.9850   -2.5550 o         1 MOL     -0.511456
    106 C34         3.7210   -2.7470   -2.3440 c3        1 MOL     -0.086938
    107 C35         2.4990   -3.5630   -1.9290 c         1 MOL      0.808607
    108 O17         2.7820   -4.7160   -1.4310 o         1 MOL     -0.746817
    109 O18         1.3640   -3.0450   -2.0860 o         1 MOL     -0.746817
    110 H47         3.3140   -1.3600    0.0050 hn        1 MOL      0.107014
    111 H48         5.1480   -3.5000   -0.9370 h1        1 MOL      0.067750
    112 H49         4.2440   -3.2300   -3.1690 hc        1 MOL     -0.017770
    113 H50         3.2730   -1.7760   -2.5690 hc        1 MOL     -0.017770
    114 N11         5.9930   -0.3620   -0.9950 n         1 MOL     -0.323654
    115 C36         6.6930    0.8240   -1.5140 c3        1 MOL      0.230851
    116 C37         6.2190    2.0680   -0.7210 c         1 MOL      0.364211
    117 O19         5.7060    1.9230    0.3740 o         1 MOL     -0.442939
    118 C38         8.2430    0.6310   -1.2470 c3        1 MOL     -0.340068
    119 C39         9.1850    1.8490   -1.2710 ca        1 MOL      0.039357
    120 C40         9.3730    2.7710   -0.2600 ca        1 MOL     -0.100106
    121 C41         9.8760    2.0690   -2.5010 ca        1 MOL     -0.100106
    122 C42        10.2820    3.8750   -0.4390 ca        1 MOL     -0.184157
    123 C43        10.8290    3.0700   -2.6720 ca        1 MOL     -0.184157
    124 C44        11.0320    4.0510   -1.6250 ca        1 MOL     -0.052347
    125 H51         5.5560   -0.2600   -0.0930 hn        1 MOL      0.144950
    126 H52         6.4600    0.9640   -2.5760 h1        1 MOL      0.058058
    127 H53         8.5610   -0.2030   -1.8790 hc        1 MOL      0.149146
    128 H54         8.3560    0.2890   -0.2190 hc        1 MOL      0.149146
    129 H55         8.8060    2.5360    0.6210 ha        1 MOL      0.108765
    130 H56         9.8270    1.3370   -3.2830 ha        1 MOL      0.108765
    131 H57        10.4090    4.5560    0.3980 ha        1 MOL      0.126547
    132 H58        11.4110    3.1870   -3.5720 ha        1 MOL      0.126547
    133 H59        11.8140    4.7890   -1.6980 ha        1 MOL      0.100700
    134 N12         6.2870    3.3420   -1.2840 n         1 MOL     -0.243473
    135 C45         6.2450    4.5660   -0.4700 c3        1 MOL     -0.000727
    136 C46         4.9130    4.9270    0.1240 c         1 MOL      0.612864
    137 O20         4.7660    6.0280    0.6730 o         1 MOL     -0.586746
    138 C47         6.9100    5.6790   -1.2720 c3        1 MOL     -0.017678
    139 C48         7.5290    5.0230   -2.5290 c3        1 MOL      0.226274
    140 C49         6.7610    3.6750   -2.6290 c3        1 MOL     -0.224400
    141 H60         6.9940    4.4430    0.3220 h1        1 MOL      0.081842
    142 H61         6.2760    6.5110   -1.5870 hc        1 MOL      0.016041
    143 H62         7.7160    6.1720   -0.7220 hc        1 MOL      0.016041
    144 H63         7.3030    5.6670   -3.3800 hc        1 MOL     -0.039554
    145 H64         8.6180    4.9710   -2.5220 hc        1 MOL     -0.039554
    146 H65         5.9640    3.8540   -3.3510 h1        1 MOL      0.099037
    147 H66         7.4730    2.9300   -2.9860 h1        1 MOL      0.099037
    148 N13         3.9200    4.0150    0.2100 n         1 MOL     -0.457019
    149 C50         2.6180    4.2170    0.8690 c3        1 MOL     -0.100952
    150 C51         2.7390    4.3760    2.4090 c         1 MOL      0.455350
    151 O21         1.7800    4.6950    3.0710 o         1 MOL     -0.525592
    152 C52         1.7070    3.0640    0.5630 c3        1 MOL     -0.084659
    153 C53         2.1100    1.7290    1.2120 c3        1 MOL     -0.152662
    154 C54         1.4400    0.5660    0.6060 c         1 MOL      0.688535
    155 O22         2.0350   -0.2030   -0.1610 o         1 MOL     -0.705553
    156 O23         0.1820    0.4370    0.6960 o         1 MOL     -0.705553
    157 H67         4.0040    3.0550   -0.0940 hn        1 MOL      0.278725
    158 H68         2.0920    5.1500    0.6440 h1        1 MOL      0.148995
    159 H69         1.6910    2.8870   -0.5120 hc        1 MOL      0.092522
    160 H70         0.6530    3.2760    0.7710 hc        1 MOL      0.092522
    161 H71         1.8290    1.6790    2.2650 hc        1 MOL      0.045773
    162 H72         3.1860    1.5360    1.1240 hc        1 MOL      0.045773
    163 N14         3.9180    4.2810    3.0040 n         1 MOL     -0.099938
    164 C55         4.2320    4.6950    4.3180 c3        1 MOL     -0.165361
    165 H73         4.4730    3.8230    4.9260 h1        1 MOL      0.072654
    166 H74         5.0890    5.3680    4.2920 h1        1 MOL      0.072654
    167 H75         3.3760    5.2130    4.7510 h1        1 MOL      0.072654
    168 H76         4.7360    3.9950    2.4880 hn        1 MOL      0.164241
    169 Ca1        -0.2150   -1.4880   -0.8130 Ca        1 MOL      1.649777
    170 O24         0.8050   -0.0140   -3.0480 oh        1 MOL     -0.696800
    171 H77         1.3240   -0.7770   -3.3220 ho        1 MOL      0.354457
    172 H78         0.7720    0.5420   -3.8210 ho        1 MOL      0.354457
    173 O25        -2.0340   -1.7240    1.0410 oh        1 MOL     -0.696800
    174 H79        -1.8330   -1.0240    1.6570 ho        1 MOL      0.354457
    175 H80        -2.9760   -1.6600    0.8920 ho        1 MOL      0.354457
@<TRIPOS>BOND
     1    1    2 1   
     2    1    4 1   
     3    1    5 1   
     4    1    6 1   
     5    2    3 2   
     6    2    7 1   
     7    7    8 1   
     8    7   15 1   
     9    8    9 1   
    10    8   11 1   
    11    8   16 1   
    12    9   10 2   
    13    9   19 1   
    14   11   12 1   
    15   11   17 1   
    16   11   18 1   
    17   12   13 1   
    18   12   14 1   
    19   19   20 1   
    20   19   24 1   
    21   20   21 1   
    22   20   23 1   
    23   20   25 1   
    24   21   22 2   
    25   21   29 1   
    26   23   26 1   
    27   23   27 1   
    28   23   28 1   
    29   29   30 1   
    30   29   37 1   
    31   30   31 1   
    32   30   33 1   
    33   30   38 1   
    34   31   32 2   
    35   31   41 1   
    36   33   34 1   
    37   33   39 1   
    38   33   40 1   
    39   34   35 1   
    40   34   36 1   
    41   41   42 1   
    42   41   45 1   
    43   42   43 1   
    44   42   46 1   
    45   42   47 1   
    46   43   44 2   
    47   43   48 1   
    48   48   49 1   
    49   48   56 1   
    50   49   50 1   
    51   49   52 1   
    52   49   57 1   
    53   50   51 2   
    54   50   62 1   
    55   52   53 1   
    56   52   58 1   
    57   52   59 1   
    58   53   54 1   
    59   53   55 2   
    60   54   60 1   
    61   54   61 1   
    62   62   63 1   
    63   62   66 1   
    64   63   64 1   
    65   63   67 1   
    66   63   68 1   
    67   64   65 2   
    68   64   69 1   
    69   69   70 1   
    70   69   76 1   
    71   70   71 1   
    72   70   73 1   
    73   70   77 1   
    74   71   72 2   
    75   71   83 1   
    76   73   74 1   
    77   73   75 1   
    78   73   78 1   
    79   74   80 1   
    80   74   81 1   
    81   74   82 1   
    82   75   79 1   
    83   83   84 1   
    84   83   91 1   
    85   84   85 1   
    86   84   87 1   
    87   84   92 1   
    88   85   86 2   
    89   85  102 1   
    90   87   88 1   
    91   87   89 1   
    92   87   93 1   
    93   88   90 1   
    94   88   94 1   
    95   88   95 1   
    96   89   96 1   
    97   89   97 1   
    98   89   98 1   
    99   90   99 1   
   100   90  100 1   
   101   90  101 1   
   102  102  103 1   
   103  102  110 1   
   104  103  104 1   
   105  103  106 1   
   106  103  111 1   
   107  104  105 2   
   108  104  114 1   
   109  106  107 1   
   110  106  112 1   
   111  106  113 1   
   112  107  108 1   
   113  107  109 1   
   114  114  115 1   
   115  114  125 1   
   116  115  116 1   
   117  115  118 1   
   118  115  126 1   
   119  116  117 2   
   120  116  134 1   
   121  118  119 1   
   122  118  127 1   
   123  118  128 1   
   124  119  120 ar  
   125  119  121 ar  
   126  120  122 ar  
   127  120  129 1   
   128  121  123 ar  
   129  121  130 1   
   130  122  124 ar  
   131  122  131 1   
   132  123  124 ar  
   133  123  132 1   
   134  124  133 1   
   135  134  135 1   
   136  134  140 1   
   137  135  136 1   
   138  135  138 1   
   139  135  141 1   
   140  136  137 2   
   141  136  148 1   
   142  138  139 1   
   143  138  142 1   
   144  138  143 1   
   145  139  140 1   
   146  139  144 1   
   147  139  145 1   
   148  140  146 1   
   149  140  147 1   
   150  148  149 1   
   151  148  157 1   
   152  149  150 1   
   153  149  152 1   
   154  149  158 1   
   155  150  151 2   
   156  150  163 1   
   157  152  153 1   
   158  152  159 1   
   159  152  160 1   
   160  153  154 1   
   161  153  161 1   
   162  153  162 1   
   163  154  155 1   
   164  154  156 1   
   165  163  164 1   
   166  163  168 1   
   167  164  165 1   
   168  164  166 1   
   169  164  167 1   
   170  170  171 1   
   171  170  172 1   
   172  173  174 1   
   173  173  175 1   
@<TRIPOS>SUBSTRUCTURE
     1 MOL         1 TEMP              0 ****  ****    0 ROOT
