@<TRIPOS>MOLECULE
MOL
  198   191     1     0     0
SMALL
resp


@<TRIPOS>ATOM
      1 C1          3.3130   -5.2880    3.1860 c3        1 MOL     -0.454099
      2 C2          3.8280   -4.8480    1.8410 c         1 MOL      0.794213
      3 O1          3.0800   -4.2910    1.0650 o         1 MOL     -0.760827
      4 H1          3.5630   -6.3370    3.3440 hc        1 MOL      0.108479
      5 H2          3.7740   -4.6830    3.9670 hc        1 MOL      0.108479
      6 H3          2.2310   -5.1650    3.2200 hc        1 MOL      0.108479
      7 N1          5.1380   -4.9510    1.6230 n         1 MOL     -0.709921
      8 C3          5.9530   -4.2170    0.6130 c3        1 MOL      0.471885
      9 C4          5.6250   -2.7360    0.7410 c         1 MOL      0.126531
     10 O2          5.3940   -2.0660   -0.2600 o         1 MOL     -0.341051
     11 C5          5.9630   -4.7830   -0.8450 c3        1 MOL     -0.408918
     12 C6          4.5660   -5.0870   -1.4750 c         1 MOL      0.960382
     13 O3          3.8880   -4.1030   -1.8790 o         1 MOL     -0.788060
     14 O4          4.2280   -6.2520   -1.6330 o         1 MOL     -0.788060
     15 H4          5.7390   -5.2960    2.3730 hn        1 MOL      0.310307
     16 H5          6.9860   -4.3750    0.9250 h1        1 MOL      0.016008
     17 H6          6.4560   -5.7520   -0.8820 hc        1 MOL      0.095340
     18 H7          6.4250   -4.0530   -1.5110 hc        1 MOL      0.095340
     19 N2          5.6710   -2.1640    1.9710 n         1 MOL     -0.245360
     20 C7          5.6180   -0.7950    2.4330 c3        1 MOL      0.012429
     21 C8          6.7650    0.1010    1.9370 c         1 MOL      0.436791
     22 O5          7.6130    0.4530    2.7430 o         1 MOL     -0.586029
     23 C9          4.2450   -0.1080    2.2910 c3        1 MOL      0.045310
     24 C10         4.1920    1.2930    2.8840 c3        1 MOL     -0.010114
     25 C11         3.1240   -1.0720    2.8060 c3        1 MOL     -0.060137
     26 C12         3.9540    1.4250    4.3670 c3        1 MOL     -0.357062
     27 H8          6.0070   -2.8240    2.6550 hn        1 MOL      0.214262
     28 H9          5.8040   -0.8600    3.5040 h1        1 MOL      0.026487
     29 H10         4.1480   -0.0290    1.2140 hc        1 MOL     -0.003372
     30 H11         3.2800    1.7660    2.5170 hc        1 MOL      0.054129
     31 H12         5.0520    1.9140    2.6370 hc        1 MOL      0.054129
     32 H13         2.0830   -0.7330    2.8470 hc        1 MOL      0.023745
     33 H14         3.1290   -1.9000    2.0940 hc        1 MOL      0.023745
     34 H15         3.4030   -1.3920    3.8110 hc        1 MOL      0.023745
     35 H16         4.8450    1.2270    4.9660 hc        1 MOL      0.080331
     36 H17         3.7270    2.4740    4.5540 hc        1 MOL      0.080331
     37 H18         3.0590    0.8460    4.5800 hc        1 MOL      0.080331
     38 N3          6.8600    0.3790    0.6720 n         1 MOL     -0.187354
     39 C13         8.0060    1.0330   -0.0350 c3        1 MOL      0.078782
     40 C14         8.2430    2.5370    0.0490 c         1 MOL      0.608110
     41 O6          9.4030    2.9440    0.2830 o         1 MOL     -0.587901
     42 C15         8.1470    0.4020   -1.4370 c3        1 MOL     -0.122460
     43 C16         8.3330   -1.1450   -1.4750 c         1 MOL      0.649496
     44 O7          7.7870   -1.7820   -2.3970 o         1 MOL     -0.707413
     45 O8          9.0180   -1.6890   -0.5850 o         1 MOL     -0.707413
     46 H19         6.1140   -0.0920    0.1750 hn        1 MOL      0.275077
     47 H20         8.8840    0.6850    0.5190 h1        1 MOL      0.019436
     48 H21         8.9760    0.9310   -1.8850 hc        1 MOL      0.030659
     49 H22         7.1870    0.5360   -1.9400 hc        1 MOL      0.030659
     50 N4          7.2520    3.4000   -0.1460 n         1 MOL     -0.589806
     51 C17         5.9550    3.2660   -0.8050 c3        1 MOL      0.074388
     52 C18         6.0670    3.5120   -2.3650 c         1 MOL      0.511184
     53 O9          7.1450    3.8600   -2.8710 o         1 MOL     -0.534724
     54 H23         7.4740    4.3760   -0.0580 hn        1 MOL      0.319991
     55 H24         5.2760    4.0100   -0.3980 h1        1 MOL      0.025560
     56 H25         5.5580    2.2530   -0.6740 h1        1 MOL      0.025560
     57 N5          5.0500    3.2160   -3.2510 n         1 MOL     -0.500734
     58 C19         3.6680    2.8030   -2.8990 c3        1 MOL      0.083353
     59 C20         3.6560    1.3400   -2.6440 c         1 MOL      0.605355
     60 O10         4.6110    0.6270   -3.0430 o         1 MOL     -0.481709
     61 C21         2.8310    3.2020   -4.0780 c3        1 MOL     -0.448670
     62 C22         2.9450    4.6930   -4.2330 c         1 MOL      0.718522
     63 O11         2.3280    5.4920   -3.4600 o         1 MOL     -0.694213
     64 O12         3.7180    5.0690   -5.1630 o         1 MOL     -0.694213
     65 H26         5.2780    3.5140   -4.1950 hn        1 MOL      0.337426
     66 H27         3.2850    3.2780   -1.9940 h1        1 MOL      0.114398
     67 H28         1.7790    2.9040   -4.0030 hc        1 MOL      0.117889
     68 H29         3.2960    2.7560   -4.9620 hc        1 MOL      0.117889
     69 N6          2.5460    0.7120   -2.0830 n         1 MOL     -0.601417
     70 C23         1.4210    1.4660   -1.4770 c3        1 MOL     -0.132489
     71 C24         1.7300    2.2820   -0.1770 c         1 MOL      0.635906
     72 O13         2.8550    2.3060    0.2870 o         1 MOL     -0.575300
     73 H30         2.6500   -0.2550   -1.8320 hn        1 MOL      0.433849
     74 H31         0.5830    0.8350   -1.2020 h1        1 MOL      0.087502
     75 H32         1.0210    2.1790   -2.1980 h1        1 MOL      0.087502
     76 N7          0.7990    3.0380    0.4160 n         1 MOL     -0.530142
     77 C25         1.0880    3.9470    1.5500 c3        1 MOL      0.177925
     78 C26         0.0450    3.7150    2.6530 c         1 MOL      0.480036
     79 O14        -0.1940    4.5860    3.4730 o         1 MOL     -0.542835
     80 C27         1.2770    5.3960    1.0730 c3        1 MOL     -0.166212
     81 C28         2.5450    5.5380    0.2300 c3        1 MOL     -0.020608
     82 C29         2.8390    6.9940   -0.0930 c         1 MOL      0.573092
     83 N8          2.7820    7.2910   -1.3650 n         1 MOL     -0.701085
     84 O15         3.1790    7.8170    0.8110 o         1 MOL     -0.619284
     85 H33        -0.1460    3.0210    0.0670 hn        1 MOL      0.278645
     86 H34         2.0250    3.7170    2.0390 h1        1 MOL      0.080340
     87 H35         1.3600    6.1110    1.8910 hc        1 MOL      0.053021
     88 H36         0.3860    5.6460    0.5070 hc        1 MOL      0.053021
     89 H37         2.6760    4.8640   -0.6120 hc        1 MOL      0.045792
     90 H38         3.3930    5.2400    0.8460 hc        1 MOL      0.045792
     91 H39         2.6140    6.5870   -2.0680 hn        1 MOL      0.332816
     92 H40         3.2760    8.1020   -1.6970 hn        1 MOL      0.332816
     93 N9         -0.6590    2.5230    2.6520 n         1 MOL     -0.332773
     94 C30        -1.8590    2.3030    3.3940 c3        1 MOL     -0.043341
     95 C31        -3.0450    2.7200    2.5950 c         1 MOL      0.574414
     96 O16        -3.0720    2.3380    1.4090 o         1 MOL     -0.509324
     97 C32        -1.8930    0.8710    3.9270 c3        1 MOL      0.412999
     98 C33        -3.0970    0.6050    4.8410 c3        1 MOL     -0.202343
     99 C34        -0.6180    0.3930    4.6380 c3        1 MOL     -0.202343
    100 H41        -0.5280    1.8370    1.9130 hn        1 MOL      0.208754
    101 H42        -1.8840    2.9020    4.3010 h1        1 MOL      0.022695
    102 H43        -2.1030    0.2270    3.0760 hc        1 MOL     -0.099290
    103 H44        -4.0350    0.7990    4.3320 hc        1 MOL      0.022862
    104 H45        -3.1310   -0.4690    5.0320 hc        1 MOL      0.022862
    105 H46        -3.0420    1.1900    5.7560 hc        1 MOL      0.022862
    106 H47         0.2110    0.1630    3.9720 hc        1 MOL      0.022862
    107 H48        -0.2720    1.1320    5.3650 hc        1 MOL      0.022862
    108 H49        -0.9240   -0.4890    5.1890 hc        1 MOL      0.022862
    109 N10        -3.9430    3.5970    3.0710 n         1 MOL     -0.479900
    110 C35        -5.0740    4.1860    2.4000 c3        1 MOL      0.189855
    111 C36        -6.1560    3.2760    1.7900 c         1 MOL      0.361236
    112 O17        -7.3500    3.3750    2.1140 o         1 MOL     -0.567757
    113 C37        -4.5640    5.2370    1.3490 c3        1 MOL     -0.426438
    114 C38        -5.7830    5.8540    0.5640 c         1 MOL      0.716492
    115 N11        -6.6250    6.6180    1.2180 n         1 MOL     -0.814011
    116 O18        -5.8310    5.6200   -0.6100 o         1 MOL     -0.557100
    117 H50        -3.8190    3.9480    4.0150 hn        1 MOL      0.298236
    118 H51        -5.6090    4.6920    3.1940 h1        1 MOL      0.027127
    119 H52        -3.8970    4.7680    0.6330 hc        1 MOL      0.148485
    120 H53        -4.0360    6.0680    1.8270 hc        1 MOL      0.148485
    121 H54        -6.6000    6.6860    2.2280 hn        1 MOL      0.366206
    122 H55        -7.3660    7.0570    0.6800 hn        1 MOL      0.366206
    123 N12        -5.7780    2.4290    0.8660 n         1 MOL     -0.144929
    124 C39        -6.7050    1.5920    0.2340 c3        1 MOL      0.005449
    125 C40        -6.1480    0.2100   -0.1170 c         1 MOL      0.352517
    126 O19        -5.0410    0.1120   -0.7230 o         1 MOL     -0.464646
    127 C41        -7.1220    2.3450   -1.0600 c3        1 MOL     -0.350440
    128 C42        -8.3730    1.8150   -1.7070 ca        1 MOL      0.053252
    129 C43        -8.2080    0.9430   -2.8200 ca        1 MOL     -0.121599
    130 C44        -9.6840    2.1100   -1.2670 ca        1 MOL     -0.121599
    131 C45        -9.3320    0.3570   -3.3920 ca        1 MOL     -0.346237
    132 C46       -10.8100    1.6930   -1.9540 ca        1 MOL     -0.346237
    133 C47       -10.6250    0.8180   -3.0620 ca        1 MOL      0.448610
    134 O20       -11.6810    0.3740   -3.7860 oh        1 MOL     -0.581101
    135 H56        -4.7930    2.2830    0.6930 hn        1 MOL      0.172509
    136 H57        -7.5900    1.4580    0.8520 h1        1 MOL      0.065207
    137 H58        -6.3160    2.2680   -1.7800 hc        1 MOL      0.178837
    138 H59        -7.3230    3.4100   -0.9180 hc        1 MOL      0.178837
    139 H60        -7.2710    0.5290   -3.1640 ha        1 MOL      0.142102
    140 H61        -9.7530    2.6950   -0.3640 ha        1 MOL      0.142102
    141 H62        -9.1870   -0.3960   -4.1440 ha        1 MOL      0.150589
    142 H63       -11.8320    1.9540   -1.7330 ha        1 MOL      0.150589
    143 H64       -11.4400   -0.2010   -4.5170 ho        1 MOL      0.413531
    144 N13        -6.8710   -0.8170    0.0420 n         1 MOL     -0.296698
    145 C48        -6.5210   -2.1930   -0.3220 c3        1 MOL      0.169019
    146 C49        -5.1340   -2.8320    0.1290 c         1 MOL      0.232923
    147 O21        -4.2720   -3.0710   -0.6600 o         1 MOL     -0.310106
    148 C50        -6.7800   -2.3390   -1.8110 c3        1 MOL     -0.114909
    149 C51        -6.8810   -3.8210   -2.3880 c3        1 MOL     -0.025763
    150 C52        -7.0330   -3.7210   -3.8860 c         1 MOL      0.726513
    151 O22        -8.0860   -4.1470   -4.4640 o         1 MOL     -0.737465
    152 O23        -5.9790   -3.6310   -4.5270 o         1 MOL     -0.737465
    153 H65        -7.7680   -0.6310    0.4790 hn        1 MOL      0.229626
    154 H66        -7.2380   -2.8320    0.1860 h1        1 MOL      0.049274
    155 H67        -6.1190   -1.7430   -2.4420 hc        1 MOL      0.032546
    156 H68        -7.8260   -2.0450   -1.8860 hc        1 MOL      0.032546
    157 H69        -7.8400   -4.1770   -2.0110 hc        1 MOL     -0.046121
    158 H70        -6.0750   -4.5000   -2.1030 hc        1 MOL     -0.046121
    159 N14        -4.9750   -3.0450    1.4240 n         1 MOL     -0.179371
    160 C53        -3.7490   -3.6320    2.0250 c3        1 MOL     -0.317542
    161 C54        -4.1550   -4.4940    3.2970 c         1 MOL      0.665999
    162 O24        -3.4600   -5.4610    3.6540 o         1 MOL     -0.542075
    163 C55        -2.6760   -2.5410    2.2970 c3        1 MOL     -0.091132
    164 C56        -1.2450   -3.0830    2.6140 c3        1 MOL      0.131594
    165 C57        -0.3780   -3.3550    1.3510 c         1 MOL      0.745012
    166 O25        -0.6040   -4.4080    0.6860 o         1 MOL     -0.740230
    167 O26         0.4900   -2.5110    0.9140 o         1 MOL     -0.740230
    168 H71        -5.7540   -2.8610    2.0400 hn        1 MOL      0.114182
    169 H72        -3.2740   -4.3470    1.3540 h1        1 MOL      0.190348
    170 H73        -3.0590   -1.9460    3.1270 hc        1 MOL      0.081450
    171 H74        -2.5980   -2.0090    1.3470 hc        1 MOL      0.081450
    172 H75        -1.3240   -3.9000    3.3260 hc        1 MOL     -0.045248
    173 H76        -0.6750   -2.3220    3.1590 hc        1 MOL     -0.045248
    174 N15        -5.3380   -4.3280    3.8040 n         1 MOL     -0.429061
    175 C58        -6.0550   -5.1640    4.8190 c3        1 MOL     -0.256042
    176 H77        -5.3300   -5.6040    5.5040 h1        1 MOL      0.119175
    177 H78        -6.7510   -4.5390    5.3780 h1        1 MOL      0.119175
    178 H79        -6.6040   -5.9590    4.3130 h1        1 MOL      0.119175
    179 H80        -5.9630   -3.5950    3.5050 hn        1 MOL      0.321475
    180 Ca1         1.1420   -3.9800   -1.3170 Ca        1 MOL      1.830578
    181 O27         2.6200   -1.7390   -0.3970 oh        1 MOL     -0.797008
    182 H81         2.0350   -1.9880    0.3190 ho        1 MOL      0.386310
    183 H82         3.4980   -1.8690   -0.0420 ho        1 MOL      0.386310
    184 O28        -0.6020   -6.2790   -2.3360 oh        1 MOL     -0.797008
    185 H83        -0.1180   -6.9960   -2.7470 ho        1 MOL      0.386310
    186 H84        -1.5260   -6.4950   -2.4740 ho        1 MOL      0.386310
    187 O29        -1.1670   -2.6620   -1.9760 oh        1 MOL     -0.797008
    188 H85        -1.8100   -3.0520   -2.5680 ho        1 MOL      0.386310
    189 H86        -1.4670   -1.7600   -1.8430 ho        1 MOL      0.386310
    190 O30         1.4490   -2.1840   -3.3150 oh        1 MOL     -0.797008
    191 H87         2.0820   -1.7170   -3.8500 ho        1 MOL      0.386310
    192 H88         0.5940   -1.9360   -3.6800 ho        1 MOL      0.386310
    193 O31         1.7400   -6.5110   -0.7230 oh        1 MOL     -0.797008
    194 H89         2.6820   -6.6330   -0.8060 ho        1 MOL      0.386310
    195 H90         1.4890   -7.0830   -0.0020 ho        1 MOL      0.386310
    196 O32         1.6800   -5.0730   -3.5910 oh        1 MOL     -0.797008
    197 H91         2.5510   -5.4680   -3.5870 ho        1 MOL      0.386310
    198 H92         1.3580   -5.2020   -4.4880 ho        1 MOL      0.386310
@<TRIPOS>BOND
     1    1    2 1   
     2    1    4 1   
     3    1    5 1   
     4    1    6 1   
     5    2    3 2   
     6    2    7 1   
     7    7    8 1   
     8    7   15 1   
     9    8    9 1   
    10    8   11 1   
    11    8   16 1   
    12    9   10 2   
    13    9   19 1   
    14   11   12 1   
    15   11   17 1   
    16   11   18 1   
    17   12   13 1   
    18   12   14 1   
    19   19   20 1   
    20   19   27 1   
    21   20   21 1   
    22   20   23 1   
    23   20   28 1   
    24   21   22 2   
    25   21   38 1   
    26   23   24 1   
    27   23   25 1   
    28   23   29 1   
    29   24   26 1   
    30   24   30 1   
    31   24   31 1   
    32   25   32 1   
    33   25   33 1   
    34   25   34 1   
    35   26   35 1   
    36   26   36 1   
    37   26   37 1   
    38   38   39 1   
    39   38   46 1   
    40   39   40 1   
    41   39   42 1   
    42   39   47 1   
    43   40   41 2   
    44   40   50 1   
    45   42   43 1   
    46   42   48 1   
    47   42   49 1   
    48   43   44 1   
    49   43   45 1   
    50   50   51 1   
    51   50   54 1   
    52   51   52 1   
    53   51   55 1   
    54   51   56 1   
    55   52   53 2   
    56   52   57 1   
    57   57   58 1   
    58   57   65 1   
    59   58   59 1   
    60   58   61 1   
    61   58   66 1   
    62   59   60 2   
    63   59   69 1   
    64   61   62 1   
    65   61   67 1   
    66   61   68 1   
    67   62   63 1   
    68   62   64 1   
    69   69   70 1   
    70   69   73 1   
    71   70   71 1   
    72   70   74 1   
    73   70   75 1   
    74   71   72 2   
    75   71   76 1   
    76   76   77 1   
    77   76   85 1   
    78   77   78 1   
    79   77   80 1   
    80   77   86 1   
    81   78   79 2   
    82   78   93 1   
    83   80   81 1   
    84   80   87 1   
    85   80   88 1   
    86   81   82 1   
    87   81   89 1   
    88   81   90 1   
    89   82   83 1   
    90   82   84 2   
    91   83   91 1   
    92   83   92 1   
    93   93   94 1   
    94   93  100 1   
    95   94   95 1   
    96   94   97 1   
    97   94  101 1   
    98   95   96 2   
    99   95  109 1   
   100   97   98 1   
   101   97   99 1   
   102   97  102 1   
   103   98  103 1   
   104   98  104 1   
   105   98  105 1   
   106   99  106 1   
   107   99  107 1   
   108   99  108 1   
   109  109  110 1   
   110  109  117 1   
   111  110  111 1   
   112  110  113 1   
   113  110  118 1   
   114  111  112 2   
   115  111  123 1   
   116  113  114 1   
   117  113  119 1   
   118  113  120 1   
   119  114  115 1   
   120  114  116 2   
   121  115  121 1   
   122  115  122 1   
   123  123  124 1   
   124  123  135 1   
   125  124  125 1   
   126  124  127 1   
   127  124  136 1   
   128  125  126 2   
   129  125  144 1   
   130  127  128 1   
   131  127  137 1   
   132  127  138 1   
   133  128  129 ar  
   134  128  130 ar  
   135  129  131 ar  
   136  129  139 1   
   137  130  132 ar  
   138  130  140 1   
   139  131  133 ar  
   140  131  141 1   
   141  132  133 ar  
   142  132  142 1   
   143  133  134 1   
   144  134  143 1   
   145  144  145 1   
   146  144  153 1   
   147  145  146 1   
   148  145  148 1   
   149  145  154 1   
   150  146  147 2   
   151  146  159 1   
   152  148  149 1   
   153  148  155 1   
   154  148  156 1   
   155  149  150 1   
   156  149  157 1   
   157  149  158 1   
   158  150  151 1   
   159  150  152 1   
   160  159  160 1   
   161  159  168 1   
   162  160  161 1   
   163  160  163 1   
   164  160  169 1   
   165  161  162 2   
   166  161  174 1   
   167  163  164 1   
   168  163  170 1   
   169  163  171 1   
   170  164  165 1   
   171  164  172 1   
   172  164  173 1   
   173  165  166 1   
   174  165  167 1   
   175  174  175 1   
   176  174  179 1   
   177  175  176 1   
   178  175  177 1   
   179  175  178 1   
   180  181  182 1   
   181  181  183 1   
   182  184  185 1   
   183  184  186 1   
   184  187  188 1   
   185  187  189 1   
   186  190  191 1   
   187  190  192 1   
   188  193  194 1   
   189  193  195 1   
   190  196  197 1   
   191  196  198 1   
@<TRIPOS>SUBSTRUCTURE
     1 MOL         1 TEMP              0 ****  ****    0 ROOT
