@<TRIPOS>MOLECULE
MOL
  192   187     1     0     0
SMALL
resp


@<TRIPOS>ATOM
      1 C1          4.6660    3.9630   -3.6110 c3        1 MOL     -0.384344
      2 C2          5.2060    2.9660   -2.5820 c         1 MOL      0.865795
      3 O1          4.5300    2.6780   -1.5800 o         1 MOL     -0.729848
      4 H1          3.9400    3.4640   -4.2540 hc        1 MOL      0.099139
      5 H2          4.1830    4.7930   -3.0950 hc        1 MOL      0.099139
      6 H3          5.4880    4.3410   -4.2180 hc        1 MOL      0.099139
      7 N1          6.4630    2.4390   -2.7110 n         1 MOL     -0.862789
      8 C3          7.0660    1.2480   -2.0100 c3        1 MOL      0.540931
      9 C4          5.9720    0.1810   -1.6960 c         1 MOL      0.067849
     10 O2          5.5230    0.0100   -0.5680 o         1 MOL     -0.408034
     11 C5          8.0250    1.5300   -0.8430 c3        1 MOL     -0.203902
     12 C6          7.7790    2.8360   -0.1320 c         1 MOL      0.861909
     13 O3          6.6400    3.1250    0.2900 o         1 MOL     -0.775979
     14 O4          8.7620    3.6410   -0.0070 o         1 MOL     -0.775979
     15 H4          7.0730    2.7990   -3.4350 hn        1 MOL      0.359210
     16 H5          7.6550    0.7550   -2.7760 h1        1 MOL     -0.028477
     17 H6          8.9610    1.5630   -1.4050 hc        1 MOL      0.009713
     18 H7          8.0190    0.7310   -0.0960 hc        1 MOL      0.009713
     19 N2          5.4280   -0.3950   -2.7290 n         1 MOL     -0.233491
     20 C7          4.7190   -1.6510   -2.8840 c3        1 MOL      0.008646
     21 C8          5.3230   -2.8630   -2.1720 c         1 MOL      0.426386
     22 O5          5.5780   -3.8490   -2.8860 o         1 MOL     -0.559712
     23 C9          3.1970   -1.4120   -2.6420 c3        1 MOL      0.429600
     24 C10         2.4070   -2.6080   -3.2540 c3        1 MOL     -0.248931
     25 C11         2.6010   -0.0550   -3.2090 c3        1 MOL     -0.365339
     26 C12         2.4870   -2.9640   -4.7630 c3        1 MOL     -0.111023
     27 H8          5.7710    0.0700   -3.5590 hn        1 MOL      0.203690
     28 H9          4.9080   -1.8450   -3.9430 h1        1 MOL      0.041816
     29 H10         2.9840   -1.4040   -1.5680 hc        1 MOL     -0.106884
     30 H11         1.3780   -2.4280   -2.9420 hc        1 MOL      0.093619
     31 H12         2.7580   -3.5240   -2.7900 hc        1 MOL      0.093619
     32 H13         1.5240   -0.0850   -3.0550 hc        1 MOL      0.064436
     33 H14         2.8320    0.8160   -2.5950 hc        1 MOL      0.064436
     34 H15         2.8480    0.0800   -4.2600 hc        1 MOL      0.064436
     35 H16         1.7960   -3.7780   -5.0150 hc        1 MOL      0.020249
     36 H17         2.2640   -2.1010   -5.3910 hc        1 MOL      0.020249
     37 H18         3.4670   -3.3030   -5.1040 hc        1 MOL      0.020249
     38 N3          5.5880   -2.8180   -0.8590 n         1 MOL     -0.123543
     39 C13         6.1880   -3.9570   -0.1910 c3        1 MOL     -0.139789
     40 C14         5.2850   -5.1500    0.2060 c         1 MOL      0.595844
     41 O6          5.8470   -6.2410    0.1360 o         1 MOL     -0.580068
     42 C15         7.0100   -3.4810    1.0290 c3        1 MOL     -0.110293
     43 C16         8.0170   -2.3200    0.9370 c         1 MOL      0.735696
     44 O7          8.1780   -1.5930    1.9460 o         1 MOL     -0.704859
     45 O8          8.7940   -2.3250   -0.0350 o         1 MOL     -0.704859
     46 H19         5.3460   -2.0080   -0.3090 hn        1 MOL      0.204710
     47 H20         6.9560   -4.3700   -0.8520 h1        1 MOL      0.095179
     48 H21         7.5170   -4.3170    1.5100 hc        1 MOL      0.031928
     49 H22         6.3150   -3.1090    1.7790 hc        1 MOL      0.031928
     50 N4          4.0200   -5.0050    0.6990 n         1 MOL     -0.563273
     51 C17         3.3930   -3.7000    0.9980 c3        1 MOL      0.200218
     52 C18         2.1740   -4.0220    1.8780 c         1 MOL      0.563454
     53 O9          1.5860   -5.0270    1.6740 o         1 MOL     -0.591278
     54 H23         3.4300   -5.8030    0.9150 hn        1 MOL      0.302219
     55 H24         3.0240   -3.1830    0.1170 h1        1 MOL      0.004851
     56 H25         4.0780   -3.0950    1.5980 h1        1 MOL      0.004851
     57 N5          1.7760   -3.3100    2.8810 n         1 MOL     -0.501260
     58 C19         2.2440   -1.9190    3.2570 c3        1 MOL      0.167606
     59 C20         2.4150   -0.9830    2.0400 c         1 MOL      0.057527
     60 O10         3.5280   -0.6780    1.6220 o         1 MOL     -0.439498
     61 C21         3.5670   -2.0300    4.0690 c3        1 MOL     -0.294757
     62 C22         4.0600   -0.6310    4.5210 c         1 MOL      0.671317
     63 O11         5.2680   -0.2700    4.4520 o         1 MOL     -0.637712
     64 O12         3.1780    0.1560    4.9140 o         1 MOL     -0.637712
     65 H26         1.0460   -3.7910    3.4000 hn        1 MOL      0.304802
     66 H27         1.5350   -1.4900    3.9680 h1        1 MOL      0.092445
     67 H28         4.3460   -2.6320    3.6060 hc        1 MOL      0.076414
     68 H29         3.3920   -2.5210    5.0340 hc        1 MOL      0.076414
     69 N6          1.3640   -0.5340    1.2950 n         1 MOL      0.039744
     70 C23        -0.0400   -0.9220    1.4060 c3        1 MOL     -0.083628
     71 C24        -0.4860   -2.2370    0.6370 c         1 MOL      0.528257
     72 O13         0.2270   -2.6980   -0.2600 o         1 MOL     -0.485175
     73 H30         1.5340    0.1860    0.6100 hn        1 MOL      0.083667
     74 H31        -0.6270   -0.0980    1.0040 h1        1 MOL      0.055162
     75 H32        -0.3410   -0.9870    2.4570 h1        1 MOL      0.055162
     76 N7         -1.6720   -2.7880    0.9640 n         1 MOL     -0.475758
     77 C25        -2.2080   -3.9420    0.3600 c3        1 MOL      0.118364
     78 C26        -2.6900   -3.9710   -1.0990 c         1 MOL      0.251692
     79 O14        -2.8910   -5.0300   -1.7210 o         1 MOL     -0.483737
     80 C27        -3.3120   -4.4970    1.2950 c3        1 MOL     -0.114819
     81 C28        -4.6660   -3.8120    1.2310 c3        1 MOL     -0.130642
     82 C29        -5.6360   -4.6740    2.0520 c         1 MOL      0.575423
     83 N8         -6.7980   -5.0000    1.5100 n         1 MOL     -0.691558
     84 O15        -5.5540   -4.6960    3.2940 o         1 MOL     -0.549849
     85 H33        -2.2090   -2.3490    1.6970 hn        1 MOL      0.291286
     86 H34        -1.3500   -4.6160    0.4320 h1        1 MOL      0.111410
     87 H35        -2.8220   -4.5770    2.2730 hc        1 MOL      0.045853
     88 H36        -3.5360   -5.4940    0.9210 hc        1 MOL      0.045853
     89 H37        -4.8890   -3.9060    0.1640 hc        1 MOL      0.071965
     90 H38        -4.5450   -2.7820    1.5510 hc        1 MOL      0.071965
     91 H39        -6.9180   -4.8690    0.5210 hn        1 MOL      0.336584
     92 H40        -7.5370   -5.4480    2.0420 hn        1 MOL      0.336584
     93 N9         -2.9590   -2.7930   -1.6940 n         1 MOL      0.034890
     94 C30        -3.3560   -2.5500   -3.0780 c3        1 MOL     -0.339079
     95 C31        -4.6920   -1.7780   -3.2180 c         1 MOL      0.593530
     96 O16        -5.1050   -1.4090   -4.3260 o         1 MOL     -0.539554
     97 C32        -2.2200   -1.9050   -3.8440 c3        1 MOL      0.233777
     98 C33        -0.9660   -2.7740   -3.9170 c3        1 MOL     -0.152188
     99 C34        -1.9670   -0.5080   -3.2770 c3        1 MOL     -0.152188
    100 H41        -2.8880   -1.9440   -1.1510 hn        1 MOL      0.146017
    101 H42        -3.6220   -3.4920   -3.5560 h1        1 MOL      0.138449
    102 H43        -2.5920   -1.7490   -4.8550 hc        1 MOL     -0.015253
    103 H44        -0.3110   -2.4300   -4.7260 hc        1 MOL      0.039490
    104 H45        -0.4430   -2.7030   -2.9690 hc        1 MOL      0.039490
    105 H46        -1.1400   -3.8280   -4.1370 hc        1 MOL      0.039490
    106 H47        -1.1820    0.0340   -3.8000 hc        1 MOL      0.039490
    107 H48        -2.8410    0.1260   -3.3520 hc        1 MOL      0.039490
    108 H49        -1.5600   -0.5920   -2.2730 hc        1 MOL      0.039490
    109 N10        -5.2890   -1.2770   -2.1100 n         1 MOL     -0.429536
    110 C35        -6.6920   -0.7010   -2.0730 c3        1 MOL     -0.084795
    111 C36        -6.7460    0.7120   -1.4590 c         1 MOL      0.824415
    112 O17        -7.6450    1.4850   -1.6470 o         1 MOL     -0.605857
    113 C37        -7.6030   -1.7150   -1.2840 c3        1 MOL     -0.393887
    114 C38        -7.7810   -3.0330   -1.9630 c         1 MOL      0.775351
    115 N11        -7.9660   -3.1490   -3.2760 n         1 MOL     -0.842401
    116 O18        -7.8670   -4.0180   -1.2740 o         1 MOL     -0.593868
    117 H50        -4.8000   -1.3880   -1.2400 hn        1 MOL      0.192556
    118 H51        -7.1450   -0.5840   -3.0570 h1        1 MOL      0.083191
    119 H52        -8.5700   -1.2280   -1.1070 hc        1 MOL      0.133694
    120 H53        -7.2140   -1.8960   -0.2810 hc        1 MOL      0.133694
    121 H54        -7.7860   -2.3000   -3.7840 hn        1 MOL      0.392192
    122 H55        -8.3500   -3.9960   -3.6720 hn        1 MOL      0.392192
    123 N12        -5.7000    1.0570   -0.7260 n         1 MOL     -0.636735
    124 C39        -5.6730    2.1030    0.2790 c3        1 MOL      0.260496
    125 C40        -4.2970    2.8290    0.4860 c         1 MOL      0.495285
    126 O19        -3.2450    2.4060   -0.0370 o         1 MOL     -0.521556
    127 C41        -6.1990    1.6160    1.6470 c3        1 MOL     -0.127035
    128 C42        -7.6700    1.0760    1.6720 ca        1 MOL      0.080405
    129 C43        -8.7720    2.0230    1.6650 ca        1 MOL     -0.167144
    130 C44        -7.9580   -0.2980    1.8940 ca        1 MOL     -0.167144
    131 C45       -10.0880    1.5360    1.7850 ca        1 MOL     -0.223212
    132 C46        -9.2800   -0.6550    1.9900 ca        1 MOL     -0.223212
    133 C47       -10.3290    0.1870    1.8550 ca        1 MOL      0.311040
    134 O20       -11.5850   -0.2760    2.0130 oh        1 MOL     -0.483849
    135 H56        -4.9530    0.3980   -0.5400 hn        1 MOL      0.309449
    136 H57        -6.3450    2.9300    0.0440 h1        1 MOL      0.009520
    137 H58        -6.0310    2.3350    2.4360 hc        1 MOL      0.060467
    138 H59        -5.5130    0.8240    1.9500 hc        1 MOL      0.060467
    139 H60        -8.5930    3.0630    1.4790 ha        1 MOL      0.132679
    140 H61        -7.1940   -1.0400    2.0750 ha        1 MOL      0.132679
    141 H62       -10.7780    2.3750    1.7980 ha        1 MOL      0.129010
    142 H63        -9.5190   -1.6810    2.2240 ha        1 MOL      0.129010
    143 H64       -12.1880    0.4620    2.0680 ho        1 MOL      0.347677
    144 N13        -4.2930    3.9860    1.2460 n         1 MOL     -0.611000
    145 C48        -3.0550    4.7860    1.5870 c3        1 MOL      0.117937
    146 C49        -2.1070    5.3510    0.4470 c         1 MOL      0.291609
    147 O21        -1.5610    6.4210    0.6230 o         1 MOL     -0.514703
    148 C50        -2.2390    3.9970    2.5760 c3        1 MOL      0.013356
    149 C51        -2.9410    3.7450    3.8940 c3        1 MOL     -0.206480
    150 C52        -2.1430    2.7550    4.6560 c         1 MOL      0.695558
    151 O22        -2.1450    1.5540    4.3230 o         1 MOL     -0.717365
    152 O23        -1.5180    3.2280    5.6240 o         1 MOL     -0.717365
    153 H65        -5.1360    4.2800    1.7130 hn        1 MOL      0.333338
    154 H66        -3.3990    5.6780    2.1250 h1        1 MOL      0.061316
    155 H67        -1.3690    4.5670    2.8990 hc        1 MOL      0.071683
    156 H68        -1.8270    3.0750    2.1620 hc        1 MOL      0.071683
    157 H69        -3.9890    3.4810    3.8020 hc        1 MOL      0.005969
    158 H70        -2.9730    4.7140    4.3910 hc        1 MOL      0.005969
    159 N14        -1.9330    4.6810   -0.6670 n         1 MOL     -0.165290
    160 C53        -0.8470    4.8430   -1.6260 c3        1 MOL     -0.079094
    161 C54        -1.2350    5.7770   -2.8060 c         1 MOL      0.427856
    162 O24        -0.3180    6.2050   -3.5350 o         1 MOL     -0.543098
    163 C55        -0.4270    3.4470   -2.1700 c3        1 MOL     -0.195324
    164 C56        -0.0630    2.3630   -1.2260 c3        1 MOL      0.294694
    165 C57         1.2180    2.6860   -0.4530 c         1 MOL      0.678334
    166 O25         1.3170    3.6820    0.2810 o         1 MOL     -0.632241
    167 O26         2.0440    1.7240   -0.2380 o         1 MOL     -0.632241
    168 H71        -2.3880    3.7860   -0.7140 hn        1 MOL      0.204122
    169 H72         0.0830    5.2090   -1.1800 h1        1 MOL      0.153388
    170 H73         0.4000    3.6530   -2.8540 hc        1 MOL      0.037911
    171 H74        -1.3000    3.0600   -2.6950 hc        1 MOL      0.037911
    172 H75         0.1030    1.3900   -1.7060 hc        1 MOL     -0.081775
    173 H76        -0.8420    2.2420   -0.4790 hc        1 MOL     -0.081775
    174 N15        -2.5030    6.0320   -3.0140 n         1 MOL     -0.193936
    175 C58        -2.9860    6.8860   -4.1280 c3        1 MOL     -0.152027
    176 H77        -3.7210    6.3350   -4.7150 h1        1 MOL      0.075646
    177 H78        -3.4470    7.7870   -3.7230 h1        1 MOL      0.075646
    178 H79        -2.1460    7.1620   -4.7660 h1        1 MOL      0.075646
    179 H80        -3.1660    5.6580   -2.3640 hn        1 MOL      0.194282
    180 Ca1         4.3380    1.8910    0.9280 Ca        1 MOL      1.750476
    181 O27         5.6540    3.3620    2.8640 oh        1 MOL     -0.801077
    182 H81         5.1490    4.1700    2.9060 ho        1 MOL      0.377697
    183 H82         6.5200    3.6420    2.5540 ho        1 MOL      0.377697
    184 O28         3.5420    4.5640    1.3250 oh        1 MOL     -0.801077
    185 H83         3.5110    5.4470    1.6930 ho        1 MOL      0.377697
    186 H84         2.6570    4.4090    0.9950 ho        1 MOL      0.377697
    187 O29         6.3080    0.4350    2.2530 oh        1 MOL     -0.801077
    188 H85         6.8030   -0.3160    1.9290 ho        1 MOL      0.377697
    189 H86         5.8690    0.1120    3.0430 ho        1 MOL      0.377697
    190 O30         2.9030    2.0510    3.0560 oh        1 MOL     -0.801077
    191 H87         2.4840    2.7660    3.5330 ho        1 MOL      0.377697
    192 H88         2.9640    1.3350    3.6950 ho        1 MOL      0.377697
@<TRIPOS>BOND
     1    1    2 1   
     2    1    4 1   
     3    1    5 1   
     4    1    6 1   
     5    2    3 2   
     6    2    7 1   
     7    7    8 1   
     8    7   15 1   
     9    8    9 1   
    10    8   11 1   
    11    8   16 1   
    12    9   10 2   
    13    9   19 1   
    14   11   12 1   
    15   11   17 1   
    16   11   18 1   
    17   12   13 1   
    18   12   14 1   
    19   19   20 1   
    20   19   27 1   
    21   20   21 1   
    22   20   23 1   
    23   20   28 1   
    24   21   22 2   
    25   21   38 1   
    26   23   24 1   
    27   23   25 1   
    28   23   29 1   
    29   24   26 1   
    30   24   30 1   
    31   24   31 1   
    32   25   32 1   
    33   25   33 1   
    34   25   34 1   
    35   26   35 1   
    36   26   36 1   
    37   26   37 1   
    38   38   39 1   
    39   38   46 1   
    40   39   40 1   
    41   39   42 1   
    42   39   47 1   
    43   40   41 2   
    44   40   50 1   
    45   42   43 1   
    46   42   48 1   
    47   42   49 1   
    48   43   44 1   
    49   43   45 1   
    50   50   51 1   
    51   50   54 1   
    52   51   52 1   
    53   51   55 1   
    54   51   56 1   
    55   52   53 2   
    56   52   57 1   
    57   57   58 1   
    58   57   65 1   
    59   58   59 1   
    60   58   61 1   
    61   58   66 1   
    62   59   60 2   
    63   59   69 1   
    64   61   62 1   
    65   61   67 1   
    66   61   68 1   
    67   62   63 1   
    68   62   64 1   
    69   69   70 1   
    70   69   73 1   
    71   70   71 1   
    72   70   74 1   
    73   70   75 1   
    74   71   72 2   
    75   71   76 1   
    76   76   77 1   
    77   76   85 1   
    78   77   78 1   
    79   77   80 1   
    80   77   86 1   
    81   78   79 2   
    82   78   93 1   
    83   80   81 1   
    84   80   87 1   
    85   80   88 1   
    86   81   82 1   
    87   81   89 1   
    88   81   90 1   
    89   82   83 1   
    90   82   84 2   
    91   83   91 1   
    92   83   92 1   
    93   93   94 1   
    94   93  100 1   
    95   94   95 1   
    96   94   97 1   
    97   94  101 1   
    98   95   96 2   
    99   95  109 1   
   100   97   98 1   
   101   97   99 1   
   102   97  102 1   
   103   98  103 1   
   104   98  104 1   
   105   98  105 1   
   106   99  106 1   
   107   99  107 1   
   108   99  108 1   
   109  109  110 1   
   110  109  117 1   
   111  110  111 1   
   112  110  113 1   
   113  110  118 1   
   114  111  112 2   
   115  111  123 1   
   116  113  114 1   
   117  113  119 1   
   118  113  120 1   
   119  114  115 1   
   120  114  116 2   
   121  115  121 1   
   122  115  122 1   
   123  123  124 1   
   124  123  135 1   
   125  124  125 1   
   126  124  127 1   
   127  124  136 1   
   128  125  126 2   
   129  125  144 1   
   130  127  128 1   
   131  127  137 1   
   132  127  138 1   
   133  128  129 ar  
   134  128  130 ar  
   135  129  131 ar  
   136  129  139 1   
   137  130  132 ar  
   138  130  140 1   
   139  131  133 ar  
   140  131  141 1   
   141  132  133 ar  
   142  132  142 1   
   143  133  134 1   
   144  134  143 1   
   145  144  145 1   
   146  144  153 1   
   147  145  146 1   
   148  145  148 1   
   149  145  154 1   
   150  146  147 2   
   151  146  159 1   
   152  148  149 1   
   153  148  155 1   
   154  148  156 1   
   155  149  150 1   
   156  149  157 1   
   157  149  158 1   
   158  150  151 1   
   159  150  152 1   
   160  159  160 1   
   161  159  168 1   
   162  160  161 1   
   163  160  163 1   
   164  160  169 1   
   165  161  162 2   
   166  161  174 1   
   167  163  164 1   
   168  163  170 1   
   169  163  171 1   
   170  164  165 1   
   171  164  172 1   
   172  164  173 1   
   173  165  166 1   
   174  165  167 1   
   175  174  175 1   
   176  174  179 1   
   177  175  176 1   
   178  175  177 1   
   179  175  178 1   
   180  181  182 1   
   181  181  183 1   
   182  184  185 1   
   183  184  186 1   
   184  187  188 1   
   185  187  189 1   
   186  190  191 1   
   187  190  192 1   
@<TRIPOS>SUBSTRUCTURE
     1 MOL         1 TEMP              0 ****  ****    0 ROOT
