@<TRIPOS>MOLECULE
MOL
  192   187     1     0     0
SMALL
resp


@<TRIPOS>ATOM
      1 C1         11.9120    5.5400   -2.1420 c3        1 MOL     -0.307222
      2 C2         11.4480    4.3850   -1.2520 c         1 MOL      0.676861
      3 O1         12.1410    3.3420   -1.2560 o         1 MOL     -0.601381
      4 H1         12.6210    6.1590   -1.5930 hc        1 MOL      0.080701
      5 H2         12.3940    5.1400   -3.0340 hc        1 MOL      0.080701
      6 H3         11.0530    6.1450   -2.4320 hc        1 MOL      0.080701
      7 N1         10.3970    4.5540   -0.4630 n         1 MOL     -0.275952
      8 C3         10.0260    3.5840    0.5410 c3        1 MOL     -0.457919
      9 C4          8.9110    2.7110    0.0670 c         1 MOL      0.751089
     10 O2          7.8410    3.1290   -0.4690 o         1 MOL     -0.749333
     11 C5          9.5990    4.3020    1.8350 c3        1 MOL      0.166063
     12 C6          8.6490    5.5070    1.7190 c         1 MOL      0.657874
     13 O3          8.4060    6.1310    2.8130 o         1 MOL     -0.712972
     14 O4          8.1220    5.7630    0.6070 o         1 MOL     -0.712972
     15 H4         10.0010    5.4890   -0.4050 hn        1 MOL      0.184341
     16 H5         10.8190    2.8870    0.8140 h1        1 MOL      0.146059
     17 H6         10.4640    4.6030    2.4190 hc        1 MOL      0.015234
     18 H7          9.1130    3.6370    2.5380 hc        1 MOL      0.015234
     19 N2          9.1870    1.3860    0.1940 n         1 MOL     -0.454909
     20 C7          8.2500    0.3820   -0.3590 c3        1 MOL      0.021293
     21 C8          6.9180    0.1840    0.3790 c         1 MOL      0.691763
     22 O5          6.8090    0.3510    1.6020 o         1 MOL     -0.567636
     23 C9          8.9930   -0.9450   -0.5750 c3        1 MOL     -0.337006
     24 C10         8.9550   -1.8450    0.6440 c3        1 MOL      0.037737
     25 C11         9.7030   -3.2130    0.3290 c3        1 MOL      0.010353
     26 C12         9.5140   -4.2880    1.4670 c3        1 MOL     -0.022030
     27 N3          9.8230   -5.6610    1.0660 n4        1 MOL     -0.172575
     28 H8         10.0660    1.0650    0.5900 hn        1 MOL      0.327618
     29 H9          8.0780    0.8390   -1.3290 h1        1 MOL      0.139115
     30 H10        10.0350   -0.7880   -0.8430 hc        1 MOL      0.109965
     31 H11         8.5180   -1.5050   -1.3760 hc        1 MOL      0.109965
     32 H12         7.9440   -2.0780    0.9590 hc        1 MOL      0.019174
     33 H13         9.3690   -1.1910    1.4230 hc        1 MOL      0.019174
     34 H14        10.7900   -3.1530    0.2550 hc        1 MOL      0.030325
     35 H15         9.3780   -3.5930   -0.6470 hc        1 MOL      0.030325
     36 H16         8.4930   -4.2610    1.8340 hx        1 MOL      0.082245
     37 H17        10.2640   -4.0150    2.2160 hx        1 MOL      0.082245
     38 H18         9.2280   -5.9060    0.2760 hn        1 MOL      0.244595
     39 H19        10.7830   -5.8300    0.7820 hn        1 MOL      0.244595
     40 H20         9.5360   -6.2510    1.8250 hn        1 MOL      0.244595
     41 N4          5.8330    0.0070   -0.4130 n         1 MOL     -0.658559
     42 C13         4.5050   -0.3990    0.0120 c3        1 MOL      0.541330
     43 C14         4.1690   -1.6640   -0.7550 c         1 MOL      0.248719
     44 O6          4.1660   -1.7340   -2.0030 o         1 MOL     -0.557648
     45 C15         3.4330    0.6480   -0.3010 c3        1 MOL     -0.243299
     46 C16         3.8800    2.0640    0.0250 c         1 MOL      0.754759
     47 O7          3.7170    2.3540    1.2240 o         1 MOL     -0.755496
     48 O8          4.4450    2.8440   -0.8050 o         1 MOL     -0.755496
     49 H21         5.9980    0.0710   -1.4120 hn        1 MOL      0.273286
     50 H22         4.4000   -0.6350    1.0690 h1        1 MOL     -0.024525
     51 H23         2.6900    0.4060    0.4460 hc        1 MOL      0.095736
     52 H24         3.0150    0.7000   -1.3090 hc        1 MOL      0.095736
     53 N5          3.7990   -2.7640   -0.1410 n         1 MOL     -0.149924
     54 C17         3.6060   -2.9990    1.3210 c3        1 MOL     -0.462427
     55 C18         2.5120   -4.0480    1.5250 c         1 MOL      0.716234
     56 O9          2.3560   -4.9330    0.6680 o         1 MOL     -0.557404
     57 H25         3.6020   -3.5420   -0.7390 hn        1 MOL      0.244639
     58 H26         3.3220   -2.0510    1.7880 h1        1 MOL      0.155156
     59 H27         4.5660   -3.3050    1.7450 h1        1 MOL      0.155156
     60 N6          1.9310   -3.9750    2.6510 n         1 MOL     -0.401791
     61 C19         1.1650   -5.0620    3.2470 c3        1 MOL     -0.074797
     62 C20        -0.0820   -5.3810    2.4100 c         1 MOL      0.578550
     63 O10        -0.9290   -4.5070    2.2980 o         1 MOL     -0.513301
     64 C21         0.8490   -4.7270    4.7210 c3        1 MOL     -0.147381
     65 C22         0.4810   -5.8880    5.6750 c         1 MOL      0.661142
     66 O11         0.4540   -5.7280    6.9050 o         1 MOL     -0.644742
     67 O12         0.0290   -6.8820    5.1460 o         1 MOL     -0.644742
     68 H28         2.1470   -3.1440    3.1830 hn        1 MOL      0.310757
     69 H29         1.8530   -5.9150    3.2790 h1        1 MOL      0.055240
     70 H30         0.0970   -3.9370    4.6940 hc        1 MOL      0.051205
     71 H31         1.6600   -4.1730    5.1830 hc        1 MOL      0.051205
     72 N7         -0.2010   -6.5570    1.7960 n         1 MOL     -0.364555
     73 C23        -1.2390   -6.8410    0.8430 c3        1 MOL      0.044721
     74 C24        -1.0110   -6.0860   -0.4410 c         1 MOL      0.397451
     75 O13        -1.7530   -6.3210   -1.4250 o         1 MOL     -0.589765
     76 H32         0.5310   -7.2150    1.9890 hn        1 MOL      0.266908
     77 H33        -2.2560   -6.6630    1.1890 h1        1 MOL      0.071755
     78 H34        -1.1870   -7.9060    0.6140 h1        1 MOL      0.071755
     79 N8          0.0080   -5.2280   -0.6690 n         1 MOL      0.015594
     80 C25         0.3280   -4.5160   -1.8690 c3        1 MOL     -0.066220
     81 C26         0.4810   -3.0420   -1.6190 c         1 MOL      0.276516
     82 O14         0.8060   -2.6560   -0.5080 o         1 MOL     -0.454366
     83 C27         1.6220   -4.9840   -2.4870 c3        1 MOL      0.552415
     84 C28         1.7530   -6.4030   -2.7740 c3        1 MOL     -0.332973
     85 O15         1.8220   -4.2830   -3.6920 oh        1 MOL     -0.672159
     86 H35         0.6510   -4.9930    0.0750 hn        1 MOL     -0.041279
     87 H36        -0.4100   -4.7310   -2.6470 h1        1 MOL      0.089851
     88 H37         2.4500   -4.6590   -1.8430 h1        1 MOL     -0.061643
     89 H38         2.7560   -4.1160   -3.7880 ho        1 MOL      0.395248
     90 H39         1.8040   -7.0200   -1.8730 hc        1 MOL      0.067809
     91 H40         0.8270   -6.7250   -3.2680 hc        1 MOL      0.067809
     92 H41         2.6210   -6.6260   -3.3990 hc        1 MOL      0.067809
     93 N9          0.2010   -2.1890   -2.5990 n         1 MOL     -0.176740
     94 C29        -0.0250   -0.7560   -2.4680 c3        1 MOL     -0.063424
     95 C30        -1.2760   -0.4200   -1.7190 c         1 MOL      0.594239
     96 O16        -1.2920    0.6210   -1.0740 o         1 MOL     -0.521263
     97 C31         0.0480   -0.2260   -3.9400 c3        1 MOL      0.061908
     98 C32         1.4720   -0.5550   -4.5390 c3        1 MOL      0.131309
     99 C33        -0.2280    1.3120   -4.0660 c3        1 MOL     -0.275924
    100 C34         1.8120    0.0190   -5.8980 c3        1 MOL     -0.298770
    101 H42         0.1550   -2.6010   -3.5270 hn        1 MOL      0.210627
    102 H43         0.7720   -0.2770   -1.8920 h1        1 MOL      0.052861
    103 H44        -0.7280   -0.7760   -4.4610 hc        1 MOL      0.010407
    104 H45         1.5260   -1.6350   -4.6410 hc        1 MOL     -0.002900
    105 H46         2.2890   -0.3880   -3.8380 hc        1 MOL     -0.002900
    106 H47         0.4730    1.9820   -3.5800 hc        1 MOL      0.075330
    107 H48        -0.3750    1.6870   -5.0810 hc        1 MOL      0.075330
    108 H49        -1.2020    1.4570   -3.6030 hc        1 MOL      0.075330
    109 H50         2.7440   -0.4290   -6.2450 hc        1 MOL      0.067357
    110 H51         1.0880   -0.1380   -6.6910 hc        1 MOL      0.067357
    111 H52         1.9110    1.1000   -5.7800 hc        1 MOL      0.067357
    112 N10        -2.3360   -1.2850   -1.8790 n         1 MOL     -0.422884
    113 C35        -3.5630   -1.1390   -1.0550 c3        1 MOL     -0.011779
    114 C36        -4.8180   -1.5100   -1.8130 c         1 MOL      0.608489
    115 O17        -4.7440   -2.1290   -2.8720 o         1 MOL     -0.523433
    116 C37        -3.5010   -1.9600    0.2560 c3        1 MOL      0.307444
    117 C38        -3.1380   -3.4360    0.0280 c3        1 MOL     -0.361277
    118 O18        -2.5930   -1.3460    1.1070 oh        1 MOL     -0.603942
    119 H53        -2.2410   -2.0710   -2.4930 hn        1 MOL      0.219054
    120 H54        -3.5920   -0.0800   -0.8060 h1        1 MOL      0.090987
    121 H55        -4.4330   -1.8620    0.8070 h1        1 MOL      0.004172
    122 H56        -2.3820   -1.8400    1.9040 ho        1 MOL      0.404155
    123 H57        -3.7890   -3.7350   -0.7790 hc        1 MOL      0.107510
    124 H58        -2.0790   -3.4540   -0.2360 hc        1 MOL      0.107510
    125 H59        -3.3240   -3.9970    0.9410 hc        1 MOL      0.107510
    126 N11        -5.9800   -1.1350   -1.2850 n         1 MOL     -0.564584
    127 C39        -7.3080   -1.4370   -1.8600 c3        1 MOL      0.035926
    128 C40        -8.2520   -0.2110   -1.8840 c         1 MOL      0.626678
    129 O19        -8.6470    0.1920   -2.9420 o         1 MOL     -0.564738
    130 C41        -7.8840   -2.7270   -1.2730 c3        1 MOL      0.340755
    131 C42        -9.2450   -3.1730   -1.9170 c3        1 MOL     -0.617267
    132 O20        -7.9950   -2.5270    0.0850 oh        1 MOL     -0.604253
    133 H60        -6.0160   -0.6450   -0.4070 hn        1 MOL      0.269002
    134 H61        -7.1120   -1.6330   -2.9120 h1        1 MOL      0.068256
    135 H62        -7.1290   -3.4990   -1.4300 h1        1 MOL      0.032256
    136 H63        -7.3610   -3.0700    0.5700 ho        1 MOL      0.390752
    137 H64       -10.0260   -2.6420   -1.3680 hc        1 MOL      0.168879
    138 H65        -9.2250   -3.0080   -2.9890 hc        1 MOL      0.168879
    139 H66        -9.3540   -4.2500   -1.7850 hc        1 MOL      0.168879
    140 N12        -8.4620    0.4300   -0.7350 n         1 MOL     -0.347616
    141 C43        -9.2050    1.6450   -0.6620 c3        1 MOL     -0.038804
    142 C44        -8.7130    2.5080    0.4580 c         1 MOL      0.576769
    143 O21        -8.0970    1.9720    1.3420 o         1 MOL     -0.496316
    144 C45       -10.7630    1.3150   -0.6230 c3        1 MOL     -0.279463
    145 C46       -11.1050    0.2120    0.3430 c3        1 MOL      0.031719
    146 C47       -12.5250   -0.3000    0.0020 c3        1 MOL     -0.036653
    147 C48       -12.9360   -1.3790    0.8880 c3        1 MOL      0.176312
    148 N13       -14.3900   -1.5700    0.7640 n4        1 MOL     -0.202352
    149 H67        -8.0720   -0.0050    0.0890 hn        1 MOL      0.228407
    150 H68        -8.9140    2.1460   -1.5840 h1        1 MOL      0.104045
    151 H69       -11.0750    1.0850   -1.6340 hc        1 MOL      0.090947
    152 H70       -11.3160    2.2330   -0.4100 hc        1 MOL      0.090947
    153 H71       -11.0600    0.7590    1.2930 hc        1 MOL      0.044285
    154 H72       -10.4250   -0.6340    0.4120 hc        1 MOL      0.044285
    155 H73       -12.6030   -0.7490   -0.9870 hc        1 MOL      0.031713
    156 H74       -13.2130    0.5220    0.1820 hc        1 MOL      0.031713
    157 H75       -12.6990   -1.1850    1.9340 hx        1 MOL      0.018162
    158 H76       -12.3920   -2.2760    0.5850 hx        1 MOL      0.018162
    159 H77       -14.5260   -2.5100    1.0970 hn        1 MOL      0.219316
    160 H78       -14.8970   -0.9790    1.4110 hn        1 MOL      0.219316
    161 H79       -14.7520   -1.5280   -0.1780 hn        1 MOL      0.219316
    162 N14        -8.8850    3.8270    0.4930 n         1 MOL     -0.533178
    163 C49        -8.2940    4.6650    1.5560 c3        1 MOL      0.238390
    164 C50        -6.7130    4.6410    1.6400 c         1 MOL      0.262776
    165 O22        -6.1430    4.4460    2.7350 o         1 MOL     -0.506801
    166 C51        -8.6830    6.1210    1.4380 c3        1 MOL      0.103231
    167 C52       -10.2330    6.2460    1.4790 c3        1 MOL     -0.243835
    168 C53       -10.5510    7.6970    1.7320 c         1 MOL      0.677336
    169 O23       -10.9840    8.0980    2.8330 o         1 MOL     -0.639424
    170 O24       -10.2810    8.5710    0.8630 o         1 MOL     -0.639424
    171 H80        -9.5270    4.1450   -0.2200 hn        1 MOL      0.298445
    172 H81        -8.6250    4.3020    2.5240 h1        1 MOL      0.048264
    173 H82        -8.3800    6.6150    0.5220 hc        1 MOL      0.021319
    174 H83        -8.2720    6.5890    2.3300 hc        1 MOL      0.021319
    175 H84       -10.7430    5.7190    2.2840 hc        1 MOL      0.022874
    176 H85       -10.6330    5.9290    0.5240 hc        1 MOL      0.022874
    177 N15        -5.9390    4.7120    0.5710 n         1 MOL     -0.238803
    178 C54        -6.3220    5.1480   -0.7870 c3        1 MOL     -0.175408
    179 H86        -6.8010    4.3220   -1.3120 h1        1 MOL      0.078843
    180 H87        -7.0160    5.9860   -0.7180 h1        1 MOL      0.078843
    181 H88        -5.4320    5.4570   -1.3340 h1        1 MOL      0.078843
    182 H89        -4.9550    4.8230    0.7820 hn        1 MOL      0.280147
    183 Ca1         5.8780    5.1250   -0.3500 Ca        1 MOL      1.822691
    184 O25         3.3720    5.5320   -1.0880 oh        1 MOL     -0.921183
    185 H90         2.9580    5.1350   -0.3120 ho        1 MOL      0.451925
    186 H91         2.6280    5.7890   -1.6440 ho        1 MOL      0.451925
    187 O26         5.4800    4.0700    2.0970 oh        1 MOL     -0.921183
    188 H92         5.6500    4.1310    3.0340 ho        1 MOL      0.451925
    189 H93         4.8650    3.3460    2.0010 ho        1 MOL      0.451925
    190 O27         5.0750    6.9830    1.2360 oh        1 MOL     -0.921183
    191 H94         4.4160    6.9700    1.9270 ho        1 MOL      0.451925
    192 H95         5.7380    7.5950    1.5540 ho        1 MOL      0.451925
@<TRIPOS>BOND
     1    1    2 1   
     2    1    4 1   
     3    1    5 1   
     4    1    6 1   
     5    2    3 2   
     6    2    7 1   
     7    7    8 1   
     8    7   15 1   
     9    8    9 1   
    10    8   11 1   
    11    8   16 1   
    12    9   10 2   
    13    9   19 1   
    14   11   12 1   
    15   11   17 1   
    16   11   18 1   
    17   12   13 1   
    18   12   14 1   
    19   19   20 1   
    20   19   28 1   
    21   20   21 1   
    22   20   23 1   
    23   20   29 1   
    24   21   22 2   
    25   21   41 1   
    26   23   24 1   
    27   23   30 1   
    28   23   31 1   
    29   24   25 1   
    30   24   32 1   
    31   24   33 1   
    32   25   26 1   
    33   25   34 1   
    34   25   35 1   
    35   26   27 1   
    36   26   36 1   
    37   26   37 1   
    38   27   38 1   
    39   27   39 1   
    40   27   40 1   
    41   41   42 1   
    42   41   49 1   
    43   42   43 1   
    44   42   45 1   
    45   42   50 1   
    46   43   44 2   
    47   43   53 1   
    48   45   46 1   
    49   45   51 1   
    50   45   52 1   
    51   46   47 1   
    52   46   48 1   
    53   53   54 1   
    54   53   57 1   
    55   54   55 1   
    56   54   58 1   
    57   54   59 1   
    58   55   56 2   
    59   55   60 1   
    60   60   61 1   
    61   60   68 1   
    62   61   62 1   
    63   61   64 1   
    64   61   69 1   
    65   62   63 2   
    66   62   72 1   
    67   64   65 1   
    68   64   70 1   
    69   64   71 1   
    70   65   66 1   
    71   65   67 1   
    72   72   73 1   
    73   72   76 1   
    74   73   74 1   
    75   73   77 1   
    76   73   78 1   
    77   74   75 2   
    78   74   79 1   
    79   79   80 1   
    80   79   86 1   
    81   80   81 1   
    82   80   83 1   
    83   80   87 1   
    84   81   82 2   
    85   81   93 1   
    86   83   84 1   
    87   83   85 1   
    88   83   88 1   
    89   84   90 1   
    90   84   91 1   
    91   84   92 1   
    92   85   89 1   
    93   93   94 1   
    94   93  101 1   
    95   94   95 1   
    96   94   97 1   
    97   94  102 1   
    98   95   96 2   
    99   95  112 1   
   100   97   98 1   
   101   97   99 1   
   102   97  103 1   
   103   98  100 1   
   104   98  104 1   
   105   98  105 1   
   106   99  106 1   
   107   99  107 1   
   108   99  108 1   
   109  100  109 1   
   110  100  110 1   
   111  100  111 1   
   112  112  113 1   
   113  112  119 1   
   114  113  114 1   
   115  113  116 1   
   116  113  120 1   
   117  114  115 2   
   118  114  126 1   
   119  116  117 1   
   120  116  118 1   
   121  116  121 1   
   122  117  123 1   
   123  117  124 1   
   124  117  125 1   
   125  118  122 1   
   126  126  127 1   
   127  126  133 1   
   128  127  128 1   
   129  127  130 1   
   130  127  134 1   
   131  128  129 2   
   132  128  140 1   
   133  130  131 1   
   134  130  132 1   
   135  130  135 1   
   136  131  137 1   
   137  131  138 1   
   138  131  139 1   
   139  132  136 1   
   140  140  141 1   
   141  140  149 1   
   142  141  142 1   
   143  141  144 1   
   144  141  150 1   
   145  142  143 2   
   146  142  162 1   
   147  144  145 1   
   148  144  151 1   
   149  144  152 1   
   150  145  146 1   
   151  145  153 1   
   152  145  154 1   
   153  146  147 1   
   154  146  155 1   
   155  146  156 1   
   156  147  148 1   
   157  147  157 1   
   158  147  158 1   
   159  148  159 1   
   160  148  160 1   
   161  148  161 1   
   162  162  163 1   
   163  162  171 1   
   164  163  164 1   
   165  163  166 1   
   166  163  172 1   
   167  164  165 2   
   168  164  177 1   
   169  166  167 1   
   170  166  173 1   
   171  166  174 1   
   172  167  168 1   
   173  167  175 1   
   174  167  176 1   
   175  168  169 1   
   176  168  170 1   
   177  177  178 1   
   178  177  182 1   
   179  178  179 1   
   180  178  180 1   
   181  178  181 1   
   182  184  185 1   
   183  184  186 1   
   184  187  188 1   
   185  187  189 1   
   186  190  191 1   
   187  190  192 1   
@<TRIPOS>SUBSTRUCTURE
     1 MOL         1 TEMP              0 ****  ****    0 ROOT
