@<TRIPOS>MOLECULE
MOL
  192   187     1     0     0
SMALL
resp


@<TRIPOS>ATOM
      1 C1          5.7410    1.7620    5.8890 c3        1 MOL     -0.216057
      2 C2          5.2670    1.5390    4.4120 c         1 MOL      0.645754
      3 O1          4.5880    2.3890    3.8500 o         1 MOL     -0.581504
      4 H1          5.3380    0.9710    6.5220 hc        1 MOL      0.051869
      5 H2          6.8300    1.7400    5.9300 hc        1 MOL      0.051869
      6 H3          5.3830    2.7290    6.2440 hc        1 MOL      0.051869
      7 N1          5.5290    0.4000    3.9000 n         1 MOL     -0.472574
      8 C3          5.1200   -0.0770    2.4910 c3        1 MOL      0.290809
      9 C4          3.6550    0.0560    2.0090 c         1 MOL     -0.001872
     10 O2          3.2860   -0.2730    0.8770 o         1 MOL     -0.131096
     11 C5          5.4830   -1.5600    2.4420 c3        1 MOL     -0.103083
     12 C6          6.9310   -1.9980    2.7430 c         1 MOL      0.653405
     13 O3          7.7020   -2.4340    1.8450 o         1 MOL     -0.683652
     14 O4          7.2660   -1.9350    3.9610 o         1 MOL     -0.683652
     15 H4          5.9960   -0.2820    4.4820 hn        1 MOL      0.244980
     16 H5          5.7870    0.4370    1.8040 h1        1 MOL      0.066641
     17 H6          5.2350   -1.9190    1.4450 hc        1 MOL     -0.026412
     18 H7          4.8000   -2.0610    3.1290 hc        1 MOL     -0.026412
     19 N2          2.7520    0.3910    2.9660 n         1 MOL     -0.390196
     20 C7          1.3360    0.1820    2.7750 c3        1 MOL      0.079974
     21 C8          0.4720    1.4720    2.6560 c         1 MOL      0.238734
     22 O5          0.7490    2.4810    3.3360 o         1 MOL     -0.471865
     23 C9          0.8600   -0.4910    4.0220 c3        1 MOL     -0.240303
     24 C10         1.1190   -2.0070    4.0110 c3        1 MOL      0.065246
     25 C11         0.6460   -2.7700    5.3300 c3        1 MOL     -0.230627
     26 C12         0.7580   -4.3120    5.0160 c3        1 MOL      0.209757
     27 N3          0.2530   -5.0770    6.1750 n4        1 MOL     -0.365430
     28 H8          3.1200    0.6550    3.8690 hn        1 MOL      0.329723
     29 H9          1.1930   -0.3480    1.8350 h1        1 MOL      0.127790
     30 H10        -0.2030   -0.3270    4.1890 hc        1 MOL      0.104645
     31 H11         1.4090   -0.1280    4.8970 hc        1 MOL      0.104645
     32 H12         2.2010   -2.0320    3.8900 hc        1 MOL      0.045454
     33 H13         0.6820   -2.5340    3.1530 hc        1 MOL      0.045454
     34 H14        -0.3920   -2.5370    5.5570 hc        1 MOL      0.083527
     35 H15         1.4150   -2.4930    6.0540 hc        1 MOL      0.083527
     36 H16         1.7760   -4.6190    4.7710 hx        1 MOL      0.040882
     37 H17         0.1600   -4.5600    4.1370 hx        1 MOL      0.040882
     38 H18         0.2260   -6.0630    5.9610 hn        1 MOL      0.304788
     39 H19         0.8370   -4.9330    6.9870 hn        1 MOL      0.304788
     40 H20        -0.6830   -4.8090    6.4630 hn        1 MOL      0.304788
     41 N4         -0.4550    1.6110    1.6970 n         1 MOL      0.157129
     42 C13        -0.8100    0.6730    0.6230 c3        1 MOL     -0.754128
     43 C14        -1.1840   -0.7730    1.1240 c         1 MOL      0.757102
     44 O6         -0.4900   -1.7430    0.7490 o         1 MOL     -0.496227
     45 C15         0.0620    0.7160   -0.6560 c3        1 MOL     -0.489257
     46 C16         0.1660    2.0160   -1.3800 c         1 MOL      0.722778
     47 O7          1.0740    2.2120   -2.2220 o         1 MOL     -0.655333
     48 O8         -0.6880    2.9320   -1.2080 o         1 MOL     -0.655333
     49 H21        -0.6840    2.5920    1.5940 hn        1 MOL      0.047397
     50 H22        -1.7560    1.1360    0.3250 h1        1 MOL      0.172034
     51 H23        -0.5890    0.0790   -1.2560 hc        1 MOL      0.237643
     52 H24         1.0200    0.2290   -0.4770 hc        1 MOL      0.237643
     53 N5         -2.0560   -1.0080    2.1580 n         1 MOL     -0.468693
     54 C17        -3.0830   -0.0310    2.4540 c3        1 MOL      0.158724
     55 C18        -4.2010   -0.6090    3.2610 c         1 MOL      0.585200
     56 O9         -4.1430   -1.7330    3.7540 o         1 MOL     -0.571269
     57 H25        -2.1180   -1.9370    2.5420 hn        1 MOL      0.246111
     58 H26        -3.4550    0.3950    1.5220 h1        1 MOL      0.043426
     59 H27        -2.5990    0.6740    3.1180 h1        1 MOL      0.043426
     60 N6         -5.2420    0.1230    3.5040 n         1 MOL     -0.559339
     61 C19        -5.5000    1.4050    2.8510 c3        1 MOL     -0.009131
     62 C20        -6.5650    1.3440    1.7530 c         1 MOL      0.496523
     63 O10        -7.2050    0.3450    1.6240 o         1 MOL     -0.436562
     64 C21        -5.8760    2.4340    3.9330 c3        1 MOL     -0.078112
     65 C22        -6.8230    1.9780    5.0310 c         1 MOL      0.729474
     66 O11        -8.0610    2.1000    4.9850 o         1 MOL     -0.679313
     67 O12        -6.3010    1.4600    6.0800 o         1 MOL     -0.679313
     68 H28        -6.0520   -0.2790    3.9640 hn        1 MOL      0.385022
     69 H29        -4.5940    1.7820    2.3740 h1        1 MOL      0.038130
     70 H30        -6.3130    3.3610    3.5750 hc        1 MOL     -0.011141
     71 H31        -4.9490    2.8140    4.3770 hc        1 MOL     -0.011141
     72 N7         -6.7700    2.4300    1.0270 n         1 MOL     -0.333341
     73 C23        -7.7690    2.4200   -0.0700 c3        1 MOL     -0.226387
     74 C24        -7.4920    1.3800   -1.1540 c         1 MOL      0.508005
     75 O13        -8.3520    0.7550   -1.7100 o         1 MOL     -0.527507
     76 H32        -6.0510    3.1240    1.1370 hn        1 MOL      0.224485
     77 H33        -7.6350    3.3670   -0.6030 h1        1 MOL      0.145295
     78 H34        -8.8040    2.3720    0.2750 h1        1 MOL      0.145295
     79 N8         -6.2350    1.1260   -1.5140 n         1 MOL     -0.326597
     80 C25        -5.7530    0.1280   -2.4540 c3        1 MOL     -0.085724
     81 C26        -4.6900   -0.6910   -1.6730 c         1 MOL      0.322959
     82 O14        -3.7190   -0.0900   -1.1740 o         1 MOL     -0.432140
     83 C27        -5.2780    0.8650   -3.7130 c3        1 MOL      0.244454
     84 C28        -5.0250   -0.1310   -4.8700 c3        1 MOL     -0.206150
     85 O15        -4.1070    1.5860   -3.5220 oh        1 MOL     -0.520791
     86 H35        -5.4890    1.7360   -1.2110 hn        1 MOL      0.207695
     87 H36        -6.5970   -0.5080   -2.7290 h1        1 MOL      0.136128
     88 H37        -6.0090    1.5780   -4.1030 h1        1 MOL      0.032344
     89 H38        -4.2790    2.2360   -2.8240 ho        1 MOL      0.314345
     90 H39        -5.9760   -0.3030   -5.3800 hc        1 MOL      0.062095
     91 H40        -4.2880    0.3270   -5.5440 hc        1 MOL      0.062095
     92 H41        -4.7830   -1.1480   -4.5650 hc        1 MOL      0.062095
     93 N9         -4.8730   -2.0480   -1.5500 n         1 MOL     -0.032798
     94 C29        -3.9900   -2.9800   -0.7400 c3        1 MOL     -0.347459
     95 C30        -2.8630   -3.6700   -1.5820 c         1 MOL      0.355573
     96 O16        -2.2650   -4.6470   -1.1490 o         1 MOL     -0.494783
     97 C31        -4.8750   -4.0210    0.0860 c3        1 MOL      0.146825
     98 C32        -5.6110   -5.0900   -0.8040 c3        1 MOL      0.172951
     99 C33        -5.8930   -3.3270    1.0810 c3        1 MOL     -0.356487
    100 C34        -6.5060   -6.0860   -0.0900 c3        1 MOL     -0.208271
    101 H42        -5.6120   -2.4380   -2.1090 hn        1 MOL      0.191669
    102 H43        -3.5000   -2.3300   -0.0150 h1        1 MOL      0.190207
    103 H44        -4.1420   -4.5560    0.7010 hc        1 MOL      0.033333
    104 H45        -4.9740   -5.7110   -1.4310 hc        1 MOL     -0.026340
    105 H46        -6.2150   -4.5430   -1.5360 hc        1 MOL     -0.026340
    106 H47        -6.3990   -3.9930    1.7760 hc        1 MOL      0.092578
    107 H48        -5.3870   -2.6890    1.8070 hc        1 MOL      0.092578
    108 H49        -6.5170   -2.6870    0.4560 hc        1 MOL      0.092578
    109 H50        -7.1300   -5.5260    0.5990 hc        1 MOL      0.046345
    110 H51        -7.2280   -6.5910   -0.7450 hc        1 MOL      0.046345
    111 H52        -5.9100   -6.7800    0.5160 hc        1 MOL      0.046345
    112 N10        -2.5130   -3.0370   -2.7110 n         1 MOL      0.016515
    113 C35        -1.5770   -3.5910   -3.7020 c3        1 MOL     -0.094726
    114 C36        -0.0500   -3.5690   -3.3220 c         1 MOL      0.348380
    115 O17         0.7350   -4.2810   -4.0020 o         1 MOL     -0.520919
    116 C37        -1.6930   -2.8340   -5.0470 c3        1 MOL      0.218249
    117 C38        -1.4530   -1.3150   -4.7630 c3        1 MOL     -0.086800
    118 O18        -3.0040   -2.9000   -5.6300 oh        1 MOL     -0.627809
    119 H53        -3.0690   -2.2180   -2.9090 hn        1 MOL      0.031500
    120 H54        -1.7970   -4.6400   -3.8590 h1        1 MOL      0.119122
    121 H55        -0.8500   -3.1590   -5.6560 h1        1 MOL      0.060735
    122 H56        -3.0040   -2.3840   -6.4350 ho        1 MOL      0.395428
    123 H57        -2.2500   -0.8360   -4.1870 hc        1 MOL      0.036503
    124 H58        -0.5660   -1.1690   -4.1330 hc        1 MOL      0.036503
    125 H59        -1.3680   -0.8290   -5.7350 hc        1 MOL      0.036503
    126 N11         0.3310   -2.8430   -2.2710 n         1 MOL     -0.047113
    127 C39         1.6860   -2.6710   -1.6700 c3        1 MOL      0.048781
    128 C40         2.7180   -2.0270   -2.5310 c         1 MOL      0.370083
    129 O19         2.7430   -2.3600   -3.7220 o         1 MOL     -0.503896
    130 C41         2.1260   -3.9690   -1.1020 c3        1 MOL      0.124466
    131 C42         1.1300   -4.4750   -0.0630 c3        1 MOL     -0.202197
    132 O20         3.3920   -3.7140   -0.4550 oh        1 MOL     -0.546116
    133 H60        -0.4070   -2.3600   -1.7940 hn        1 MOL      0.083644
    134 H61         1.5410   -1.9790   -0.8420 h1        1 MOL      0.044822
    135 H62         2.2010   -4.7460   -1.8690 h1        1 MOL      0.062572
    136 H63         3.8380   -4.5480   -0.3500 ho        1 MOL      0.344773
    137 H64         1.3020   -5.4610    0.3590 hc        1 MOL      0.046554
    138 H65         1.0590   -3.8020    0.7870 hc        1 MOL      0.046554
    139 H66         0.1230   -4.4870   -0.4900 hc        1 MOL      0.046554
    140 N12         3.4640   -1.0950   -1.9870 n         1 MOL     -0.146678
    141 C43         4.6480   -0.5050   -2.6330 c3        1 MOL     -0.072073
    142 C44         4.7920    0.9750   -2.3200 c         1 MOL      0.783983
    143 O21         5.0090    1.7780   -3.2270 o         1 MOL     -0.594586
    144 C45         5.8990   -1.1810   -2.1210 c3        1 MOL     -0.266232
    145 C46         6.0590   -2.5970   -2.6780 c3        1 MOL      0.227951
    146 C47         7.5210   -3.0600   -2.5160 c3        1 MOL     -0.127090
    147 C48         7.6690   -4.5670   -2.9910 c3        1 MOL     -0.129671
    148 N13         6.9960   -5.4940   -2.0520 n4        1 MOL     -0.198268
    149 H67         3.1920   -0.8490   -1.0500 hn        1 MOL      0.065457
    150 H68         4.6500   -0.6160   -3.7100 h1        1 MOL      0.065685
    151 H69         5.9160   -1.1740   -1.0300 hc        1 MOL      0.074494
    152 H70         6.6990   -0.5800   -2.5470 hc        1 MOL      0.074494
    153 H71         5.8510   -2.7330   -3.7400 hc        1 MOL     -0.015942
    154 H72         5.3670   -3.3220   -2.2550 hc        1 MOL     -0.015942
    155 H73         7.8240   -2.9350   -1.4810 hc        1 MOL      0.083051
    156 H74         8.1100   -2.3820   -3.1300 hc        1 MOL      0.083051
    157 H75         8.7250   -4.8140   -3.0360 hx        1 MOL      0.118818
    158 H76         7.2650   -4.6250   -4.0000 hx        1 MOL      0.118818
    159 H77         6.0070   -5.5320   -2.2470 hn        1 MOL      0.288077
    160 H78         7.2280   -6.4670   -2.1390 hn        1 MOL      0.288077
    161 H79         7.0710   -5.1780   -1.0980 hn        1 MOL      0.288077
    162 N14         4.5550    1.4000   -1.0370 n         1 MOL     -0.266941
    163 C49         4.4090    2.8160   -0.7800 c3        1 MOL     -1.605138
    164 C50         5.8430    3.3540   -0.5970 c         1 MOL      0.971071
    165 O22         6.7500    2.7980    0.0330 o         1 MOL     -0.566037
    166 C51         3.4980    3.0450    0.4400 c3        1 MOL      0.894326
    167 C52         3.1470    4.5070    0.7110 c3        1 MOL     -1.389008
    168 C53         2.6310    5.2620   -0.5650 c         1 MOL      1.082040
    169 O23         3.3050    5.4740   -1.5640 o         1 MOL     -0.796399
    170 O24         1.4380    5.7290   -0.6790 o         1 MOL     -0.796399
    171 H80         4.3130    0.7680   -0.2750 hn        1 MOL      0.241158
    172 H81         3.9080    3.2420   -1.6460 h1        1 MOL      0.595924
    173 H82         4.0100    2.6480    1.3160 hc        1 MOL      0.054349
    174 H83         2.5900    2.4360    0.3530 hc        1 MOL      0.054349
    175 H84         4.0880    4.9900    0.9620 hc        1 MOL      0.340668
    176 H85         2.4290    4.5190    1.5320 hc        1 MOL      0.340668
    177 N15         6.0730    4.6090   -0.9960 n         1 MOL     -0.498676
    178 C54         7.3710    5.3180   -1.0120 c3        1 MOL     -0.211209
    179 H86         7.9900    4.9230   -1.8170 h1        1 MOL      0.096370
    180 H87         7.2020    6.3830   -1.1730 h1        1 MOL      0.096370
    181 H88         7.8770    5.1700   -0.0580 h1        1 MOL      0.096370
    182 H89         5.3740    4.9770   -1.6250 hn        1 MOL      0.472615
    183 Ca1        -0.9260    5.4740   -1.2750 Ca        1 MOL      1.606795
    184 O25        -1.4830    4.6480   -3.7080 oh        1 MOL     -0.815344
    185 O26         0.1800    7.4680   -2.9820 oh        1 MOL     -0.815344
    186 H90        -1.3700    5.1640   -4.5100 ho        1 MOL      0.412751
    187 H91        -0.3100    8.2380   -2.7070 ho        1 MOL      0.412751
    188 H92        -1.4250    3.7340   -4.0020 ho        1 MOL      0.412751
    189 H93         0.9390    7.8210   -3.4530 ho        1 MOL      0.412751
    190 O27        -2.9950    6.9420   -2.5310 oh        1 MOL     -0.815344
    191 H94        -3.8480    6.5430   -2.7130 ho        1 MOL      0.412751
    192 H95        -3.0880    7.8410   -2.8390 ho        1 MOL      0.412751
@<TRIPOS>BOND
     1    1    2 1   
     2    1    4 1   
     3    1    5 1   
     4    1    6 1   
     5    2    3 2   
     6    2    7 1   
     7    7    8 1   
     8    7   15 1   
     9    8    9 1   
    10    8   11 1   
    11    8   16 1   
    12    9   10 2   
    13    9   19 1   
    14   11   12 1   
    15   11   17 1   
    16   11   18 1   
    17   12   13 1   
    18   12   14 1   
    19   19   20 1   
    20   19   28 1   
    21   20   21 1   
    22   20   23 1   
    23   20   29 1   
    24   21   22 2   
    25   21   41 1   
    26   23   24 1   
    27   23   30 1   
    28   23   31 1   
    29   24   25 1   
    30   24   32 1   
    31   24   33 1   
    32   25   26 1   
    33   25   34 1   
    34   25   35 1   
    35   26   27 1   
    36   26   36 1   
    37   26   37 1   
    38   27   38 1   
    39   27   39 1   
    40   27   40 1   
    41   41   42 1   
    42   41   49 1   
    43   42   43 1   
    44   42   45 1   
    45   42   50 1   
    46   43   44 2   
    47   43   53 1   
    48   45   46 1   
    49   45   51 1   
    50   45   52 1   
    51   46   47 1   
    52   46   48 1   
    53   53   54 1   
    54   53   57 1   
    55   54   55 1   
    56   54   58 1   
    57   54   59 1   
    58   55   56 2   
    59   55   60 1   
    60   60   61 1   
    61   60   68 1   
    62   61   62 1   
    63   61   64 1   
    64   61   69 1   
    65   62   63 2   
    66   62   72 1   
    67   64   65 1   
    68   64   70 1   
    69   64   71 1   
    70   65   66 1   
    71   65   67 1   
    72   72   73 1   
    73   72   76 1   
    74   73   74 1   
    75   73   77 1   
    76   73   78 1   
    77   74   75 2   
    78   74   79 1   
    79   79   80 1   
    80   79   86 1   
    81   80   81 1   
    82   80   83 1   
    83   80   87 1   
    84   81   82 2   
    85   81   93 1   
    86   83   84 1   
    87   83   85 1   
    88   83   88 1   
    89   84   90 1   
    90   84   91 1   
    91   84   92 1   
    92   85   89 1   
    93   93   94 1   
    94   93  101 1   
    95   94   95 1   
    96   94   97 1   
    97   94  102 1   
    98   95   96 2   
    99   95  112 1   
   100   97   98 1   
   101   97   99 1   
   102   97  103 1   
   103   98  100 1   
   104   98  104 1   
   105   98  105 1   
   106   99  106 1   
   107   99  107 1   
   108   99  108 1   
   109  100  109 1   
   110  100  110 1   
   111  100  111 1   
   112  112  113 1   
   113  112  119 1   
   114  113  114 1   
   115  113  116 1   
   116  113  120 1   
   117  114  115 2   
   118  114  126 1   
   119  116  117 1   
   120  116  118 1   
   121  116  121 1   
   122  117  123 1   
   123  117  124 1   
   124  117  125 1   
   125  118  122 1   
   126  126  127 1   
   127  126  133 1   
   128  127  128 1   
   129  127  130 1   
   130  127  134 1   
   131  128  129 2   
   132  128  140 1   
   133  130  131 1   
   134  130  132 1   
   135  130  135 1   
   136  131  137 1   
   137  131  138 1   
   138  131  139 1   
   139  132  136 1   
   140  140  141 1   
   141  140  149 1   
   142  141  142 1   
   143  141  144 1   
   144  141  150 1   
   145  142  143 2   
   146  142  162 1   
   147  144  145 1   
   148  144  151 1   
   149  144  152 1   
   150  145  146 1   
   151  145  153 1   
   152  145  154 1   
   153  146  147 1   
   154  146  155 1   
   155  146  156 1   
   156  147  148 1   
   157  147  157 1   
   158  147  158 1   
   159  148  159 1   
   160  148  160 1   
   161  148  161 1   
   162  162  163 1   
   163  162  171 1   
   164  163  164 1   
   165  163  166 1   
   166  163  172 1   
   167  164  165 2   
   168  164  177 1   
   169  166  167 1   
   170  166  173 1   
   171  166  174 1   
   172  167  168 1   
   173  167  175 1   
   174  167  176 1   
   175  168  169 1   
   176  168  170 1   
   177  177  178 1   
   178  177  182 1   
   179  178  179 1   
   180  178  180 1   
   181  178  181 1   
   182  184  186 1   
   183  184  188 1   
   184  185  187 1   
   185  185  189 1   
   186  190  191 1   
   187  190  192 1   
@<TRIPOS>SUBSTRUCTURE
     1 MOL         1 TEMP              0 ****  ****    0 ROOT
