@<TRIPOS>MOLECULE
MOL
  189   185     1     0     0
SMALL
resp


@<TRIPOS>ATOM
      1 C1          4.3720   -3.7320    3.4420 c3        1 MOL     -0.385124
      2 C2          5.2670   -3.0680    2.3090 c         1 MOL      0.605811
      3 O1          4.7550   -2.7500    1.2130 o         1 MOL     -0.484381
      4 H1          3.4540   -4.1190    2.9990 hc        1 MOL      0.102562
      5 H2          4.9220   -4.5500    3.9080 hc        1 MOL      0.102562
      6 H3          4.1250   -2.9840    4.1960 hc        1 MOL      0.102562
      7 N1          6.5990   -2.8250    2.5680 n         1 MOL     -0.561085
      8 C3          7.3690   -1.8080    1.8060 c3        1 MOL      0.361959
      9 C4          6.5850   -0.5090    1.3530 c         1 MOL      0.295091
     10 O2          6.2500   -0.2790    0.1790 o         1 MOL     -0.475262
     11 C5          8.1150   -2.5910    0.7150 c3        1 MOL     -0.366605
     12 C6          7.3610   -3.5730   -0.1580 c         1 MOL      0.834469
     13 O3          6.5920   -3.1300   -0.9940 o         1 MOL     -0.743938
     14 O4          7.5360   -4.7850    0.0150 o         1 MOL     -0.743938
     15 H4          6.8650   -2.9830    3.5220 hn        1 MOL      0.280283
     16 H5          8.1460   -1.4760    2.4940 h1        1 MOL     -0.003278
     17 H6          9.0030   -3.0890    1.1020 hc        1 MOL      0.059663
     18 H7          8.4600   -1.8660   -0.0200 hc        1 MOL      0.059663
     19 N2          6.2050    0.2390    2.4040 n         1 MOL     -0.359161
     20 C7          5.5950    1.5670    2.5500 c3        1 MOL      0.052002
     21 C8          6.1800    2.7370    1.6450 c         1 MOL      0.257485
     22 O5          6.7360    3.7190    2.1740 o         1 MOL     -0.523806
     23 C9          4.0050    1.4930    2.2920 c3        1 MOL      0.114682
     24 C10         3.1810    2.6930    2.8920 c3        1 MOL     -0.140830
     25 C11         3.4950    0.2370    2.9780 c3        1 MOL     -0.228576
     26 C12         3.1310    2.8370    4.4060 c3        1 MOL     -0.046964
     27 H8          6.3690   -0.2560    3.2660 hn        1 MOL      0.220060
     28 H9          5.8030    1.8170    3.5930 h1        1 MOL      0.071386
     29 H10         3.7370    1.4350    1.2440 hc        1 MOL      0.053662
     30 H11         2.1840    2.4400    2.5530 hc        1 MOL      0.071324
     31 H12         3.5410    3.6090    2.4120 hc        1 MOL      0.071324
     32 H13         2.4560    0.2920    3.3150 hc        1 MOL      0.047325
     33 H14         3.5380   -0.6420    2.3330 hc        1 MOL      0.047325
     34 H15         4.1150    0.0230    3.8500 hc        1 MOL      0.047325
     35 H16         2.8580    1.9390    4.9600 hc        1 MOL      0.002843
     36 H17         4.0140    3.2070    4.9120 hc        1 MOL      0.002843
     37 H18         2.3570    3.5730    4.5730 hc        1 MOL      0.002843
     38 N3          6.2440    2.6050    0.2940 n         1 MOL      0.085109
     39 C13         6.8700    3.6370   -0.5980 c3        1 MOL      0.017212
     40 C14         5.9620    4.8670   -0.7930 c         1 MOL      0.499221
     41 O6          6.3450    6.0140   -0.3700 o         1 MOL     -0.579332
     42 C15         7.3690    3.0300   -1.9070 c3        1 MOL     -0.334244
     43 C16         8.3260    1.8120   -1.6520 c         1 MOL      0.760432
     44 O7          9.1770    1.9690   -0.7020 o         1 MOL     -0.700004
     45 O8          8.3230    0.8050   -2.4010 o         1 MOL     -0.700004
     46 H19         6.0130    1.6920   -0.0590 hn        1 MOL      0.193331
     47 H20         7.7710    4.0290   -0.1210 h1        1 MOL      0.059293
     48 H21         7.8930    3.8610   -2.3650 hc        1 MOL      0.072794
     49 H22         6.5030    2.6970   -2.4820 hc        1 MOL      0.072794
     50 N4          4.6990    4.7600   -1.1880 n         1 MOL     -0.487012
     51 C17         3.8590    3.5660   -1.2900 c3        1 MOL      0.062628
     52 C18         2.5900    3.9230   -2.0720 c         1 MOL      0.638523
     53 O9          2.2280    5.1030   -2.1550 o         1 MOL     -0.574047
     54 H23         4.2390    5.6400   -1.4130 hn        1 MOL      0.272994
     55 H24         3.6570    3.2190   -0.2700 h1        1 MOL      0.063612
     56 H25         4.3660    2.8490   -1.9450 h1        1 MOL      0.063612
     57 N5          1.9060    3.0020   -2.8310 n         1 MOL     -0.587548
     58 C19         2.0390    1.5240   -2.9490 c3        1 MOL      0.282611
     59 C20         2.1670    0.7970   -1.5450 c         1 MOL      0.052722
     60 O10         3.2700    0.5180   -1.0930 o         1 MOL     -0.628678
     61 C21         3.1990    1.0870   -3.9180 c3        1 MOL     -0.334324
     62 C22         3.2400   -0.4210   -4.2720 c         1 MOL      0.694367
     63 O11         3.6390   -0.8170   -5.4060 o         1 MOL     -0.682838
     64 O12         2.9000   -1.2480   -3.4070 o         1 MOL     -0.682838
     65 H26         1.1660    3.4070   -3.3970 hn        1 MOL      0.290502
     66 H27         1.1700    1.0880   -3.4470 h1        1 MOL      0.090865
     67 H28         4.1250    1.5490   -3.5740 hc        1 MOL      0.068561
     68 H29         3.0100    1.5120   -4.9120 hc        1 MOL      0.068561
     69 N6          1.1520    0.5630   -0.8040 n         1 MOL      0.006642
     70 C23        -0.2290    0.9320   -1.0020 c3        1 MOL      0.122037
     71 C24        -0.4950    2.3650   -0.4490 c         1 MOL      0.512301
     72 O13         0.3540    2.9450    0.1730 o         1 MOL     -0.522759
     73 H30         1.2450   -0.1590   -0.0990 hn        1 MOL      0.153337
     74 H31        -0.9660    0.2990   -0.5090 h1        1 MOL     -0.027627
     75 H32        -0.4370    0.9440   -2.0710 h1        1 MOL     -0.027627
     76 N7         -1.7180    2.9250   -0.7070 n         1 MOL     -0.443186
     77 C25        -2.0840    4.2160   -0.2440 c3        1 MOL      0.009853
     78 C26        -2.6580    4.1280    1.2130 c         1 MOL      0.393678
     79 O14        -2.7400    5.1370    1.9290 o         1 MOL     -0.515921
     80 C27        -3.1820    4.8060   -1.1280 c3        1 MOL      0.246024
     81 C28        -3.0470    6.3310   -1.1810 c3        1 MOL     -0.229835
     82 C29        -4.2530    6.9810   -1.9370 c         1 MOL      0.714566
     83 N8         -4.2060    8.2710   -2.2080 n         1 MOL     -0.831795
     84 O15        -5.1810    6.3550   -2.4500 o         1 MOL     -0.569246
     85 H33        -2.2930    2.4400   -1.3750 hn        1 MOL      0.252821
     86 H34        -1.2100    4.8630   -0.2990 h1        1 MOL      0.121667
     87 H35        -4.1670    4.4400   -0.8260 hc        1 MOL     -0.060296
     88 H36        -2.9970    4.4980   -2.1560 hc        1 MOL     -0.060296
     89 H37        -2.0970    6.6280   -1.6170 hc        1 MOL      0.056538
     90 H38        -3.0380    6.7400   -0.1660 hc        1 MOL      0.056538
     91 H39        -3.3370    8.7640   -2.0590 hn        1 MOL      0.360218
     92 H40        -4.8990    8.6060   -2.8610 hn        1 MOL      0.360218
     93 N9         -2.9110    2.9270    1.7320 n         1 MOL     -0.207299
     94 C30        -3.6360    2.7230    3.0530 c3        1 MOL     -0.180243
     95 C31        -4.9780    2.0160    3.0750 c         1 MOL      0.612271
     96 O16        -5.5740    2.0270    4.1570 o         1 MOL     -0.544151
     97 C32        -2.6580    2.0770    4.0900 c3        1 MOL      0.224066
     98 C33        -1.4020    2.9610    4.2220 c3        1 MOL     -0.268364
     99 C34        -2.2080    0.7010    3.7790 c3        1 MOL     -0.268364
    100 H41        -2.7670    2.1360    1.1150 hn        1 MOL      0.166559
    101 H42        -3.8260    3.7240    3.4300 h1        1 MOL      0.127597
    102 H43        -3.2460    2.1040    5.0080 hc        1 MOL     -0.014405
    103 H44        -0.8610    3.1020    3.2840 hc        1 MOL      0.071638
    104 H45        -1.6310    3.9870    4.5060 hc        1 MOL      0.071638
    105 H46        -0.7350    2.5350    4.9670 hc        1 MOL      0.071638
    106 H47        -1.3300    0.7110    3.1300 hc        1 MOL      0.071638
    107 H48        -1.9220    0.1570    4.6760 hc        1 MOL      0.071638
    108 H49        -3.0090    0.2020    3.2410 hc        1 MOL      0.071638
    109 N10        -5.4870    1.6020    1.9090 n         1 MOL     -0.459731
    110 C35        -6.8490    1.1130    1.6660 c3        1 MOL      0.013245
    111 C36        -6.9380   -0.2870    1.1030 c         1 MOL      0.639829
    112 O17        -7.9640   -0.9350    1.3300 o         1 MOL     -0.554489
    113 C37        -7.5450    2.0360    0.6400 c3        1 MOL     -0.280248
    114 C38        -7.4990    3.4490    1.0370 c         1 MOL      0.628727
    115 N11        -8.2310    3.7920    2.0420 n         1 MOL     -0.738827
    116 O18        -6.9480    4.2880    0.2890 o         1 MOL     -0.526050
    117 H50        -4.8950    1.6990    1.0930 hn        1 MOL      0.298018
    118 H51        -7.3790    1.1970    2.6160 h1        1 MOL      0.066749
    119 H52        -8.5880    1.8150    0.4240 hc        1 MOL      0.096166
    120 H53        -7.0640    1.9100   -0.3280 hc        1 MOL      0.096166
    121 H54        -8.6090    3.0870    2.6560 hn        1 MOL      0.355560
    122 H55        -8.2600    4.7260    2.4160 hn        1 MOL      0.355560
    123 N12        -5.9110   -0.8000    0.3840 n         1 MOL     -0.612863
    124 C39        -5.8620   -2.1880   -0.2470 c3        1 MOL      0.504947
    125 C40        -4.5190   -2.8410   -0.2250 c         1 MOL      0.116710
    126 O19        -3.5290   -2.1400    0.0810 o         1 MOL     -0.389242
    127 C41        -6.3090   -2.0980   -1.7280 c3        1 MOL     -0.037773
    128 C42        -7.6170   -1.3310   -1.9620 ca        1 MOL     -0.108287
    129 C43        -8.8020   -2.0500   -1.7790 ca        1 MOL     -0.088108
    130 C44        -7.6590   -0.0130   -2.3760 ca        1 MOL     -0.088108
    131 C45       -10.0140   -1.4310   -1.9790 ca        1 MOL     -0.202565
    132 C46        -8.8510    0.6500   -2.4250 ca        1 MOL     -0.202565
    133 C47       -10.0540   -0.0450   -2.2430 ca        1 MOL      0.290119
    134 O20       -11.2300    0.5210   -2.4330 oh        1 MOL     -0.493989
    135 H56        -5.0850   -0.2720    0.1430 hn        1 MOL      0.272732
    136 H57        -6.5730   -2.7970    0.3200 h1        1 MOL     -0.031005
    137 H58        -6.4050   -3.1390   -2.0360 hc        1 MOL      0.043820
    138 H59        -5.4800   -1.6330   -2.2660 hc        1 MOL      0.043820
    139 H60        -8.7750   -3.0790   -1.4510 ha        1 MOL      0.116906
    140 H61        -6.7830    0.4430   -2.8060 ha        1 MOL      0.116906
    141 H62       -10.9600   -1.8970   -1.7390 ha        1 MOL      0.114717
    142 H63        -8.9270    1.6060   -2.9190 ha        1 MOL      0.114717
    143 H64       -11.1770    1.4830   -2.5470 ho        1 MOL      0.372890
    144 N13        -4.4820   -4.1880   -0.4770 n         1 MOL     -0.337685
    145 C48        -3.3250   -5.0850   -0.6930 c3        1 MOL      0.271850
    146 C49        -2.3320   -5.2330    0.4540 c         1 MOL      0.341057
    147 O21        -1.6740   -6.2630    0.5370 o         1 MOL     -0.496906
    148 C50        -2.6410   -4.8100   -1.9990 c3        1 MOL     -0.098231
    149 C51        -3.5640   -4.7740   -3.3460 c3        1 MOL     -0.147920
    150 C52        -3.4570   -6.0300   -4.2820 c         1 MOL      0.707629
    151 O22        -4.2610   -6.9600   -4.0210 o         1 MOL     -0.730663
    152 O23        -2.5980   -6.2010   -5.1670 o         1 MOL     -0.730663
    153 H65        -5.3600   -4.6580   -0.3970 hn        1 MOL      0.260495
    154 H66        -3.7780   -6.0530   -0.8560 h1        1 MOL     -0.002067
    155 H67        -1.9140   -5.6040   -2.1950 hc        1 MOL      0.096831
    156 H68        -2.1880   -3.8200   -2.0090 hc        1 MOL      0.096831
    157 H69        -3.2110   -4.0330   -4.0670 hc        1 MOL     -0.027334
    158 H70        -4.6000   -4.6310   -3.0460 hc        1 MOL     -0.027334
    159 N14        -2.1140   -4.1730    1.2620 n         1 MOL     -0.470778
    160 C53        -1.1290   -3.9600    2.3630 c3        1 MOL      0.123518
    161 C54        -1.6770   -4.5450    3.6610 c         1 MOL      0.384007
    162 O24        -0.9660   -4.5780    4.6370 o         1 MOL     -0.548581
    163 C55        -0.5770   -2.5410    2.5240 c3        1 MOL     -0.065211
    164 C56         0.0170   -1.8670    1.2270 c3        1 MOL      0.212291
    165 C57         1.1530   -2.6140    0.5090 c         1 MOL      0.514330
    166 O25         2.1510   -1.9500    0.0960 o         1 MOL     -0.587859
    167 O26         0.9740   -3.7950    0.2160 o         1 MOL     -0.587859
    168 H71        -2.6110   -3.3380    1.0080 hn        1 MOL      0.247844
    169 H72        -0.2040   -4.5220    2.2120 h1        1 MOL      0.129934
    170 H73         0.2200   -2.5270    3.2680 hc        1 MOL     -0.007673
    171 H74        -1.4950   -2.0160    2.8160 hc        1 MOL     -0.007673
    172 H75         0.3630   -0.8620    1.4630 hc        1 MOL     -0.074297
    173 H76        -0.8230   -1.6950    0.5430 hc        1 MOL     -0.074297
    174 N15        -2.8010   -5.1860    3.6890 n         1 MOL     -0.082187
    175 C58        -3.3430   -5.8590    4.8490 c3        1 MOL     -0.368634
    176 H77        -4.2900   -6.3300    4.5860 h1        1 MOL      0.127448
    177 H78        -2.6410   -6.6210    5.1890 h1        1 MOL      0.127448
    178 H79        -3.5070   -5.1330    5.6470 h1        1 MOL      0.127448
    179 H80        -3.3110   -5.1840    2.8200 hn        1 MOL      0.157135
    180 Ca1         4.3920   -1.8230   -1.1830 Ca        1 MOL      1.766652
    181 O27         4.7240   -3.7210   -3.0490 oh        1 MOL     -0.790000
    182 H81         4.3340   -3.5040   -3.8940 ho        1 MOL      0.371388
    183 H82         5.5860   -4.0790   -3.2730 ho        1 MOL      0.371388
    184 O28         6.0670   -0.4660   -2.8040 oh        1 MOL     -0.790000
    185 H83         6.1470   -0.8050   -3.6950 ho        1 MOL      0.371388
    186 H84         6.8510    0.0690   -2.6740 ho        1 MOL      0.371388
    187 O29         3.4120   -4.4920   -0.6550 oh        1 MOL     -0.790000
    188 H85         2.4710   -4.4290   -0.5250 ho        1 MOL      0.371388
    189 H86         3.6910   -5.1740   -0.0350 ho        1 MOL      0.371388
@<TRIPOS>BOND
     1    1    2 1   
     2    1    4 1   
     3    1    5 1   
     4    1    6 1   
     5    2    3 2   
     6    2    7 1   
     7    7    8 1   
     8    7   15 1   
     9    8    9 1   
    10    8   11 1   
    11    8   16 1   
    12    9   10 2   
    13    9   19 1   
    14   11   12 1   
    15   11   17 1   
    16   11   18 1   
    17   12   13 1   
    18   12   14 1   
    19   19   20 1   
    20   19   27 1   
    21   20   21 1   
    22   20   23 1   
    23   20   28 1   
    24   21   22 2   
    25   21   38 1   
    26   23   24 1   
    27   23   25 1   
    28   23   29 1   
    29   24   26 1   
    30   24   30 1   
    31   24   31 1   
    32   25   32 1   
    33   25   33 1   
    34   25   34 1   
    35   26   35 1   
    36   26   36 1   
    37   26   37 1   
    38   38   39 1   
    39   38   46 1   
    40   39   40 1   
    41   39   42 1   
    42   39   47 1   
    43   40   41 2   
    44   40   50 1   
    45   42   43 1   
    46   42   48 1   
    47   42   49 1   
    48   43   44 1   
    49   43   45 1   
    50   50   51 1   
    51   50   54 1   
    52   51   52 1   
    53   51   55 1   
    54   51   56 1   
    55   52   53 2   
    56   52   57 1   
    57   57   58 1   
    58   57   65 1   
    59   58   59 1   
    60   58   61 1   
    61   58   66 1   
    62   59   60 2   
    63   59   69 1   
    64   61   62 1   
    65   61   67 1   
    66   61   68 1   
    67   62   63 1   
    68   62   64 1   
    69   69   70 1   
    70   69   73 1   
    71   70   71 1   
    72   70   74 1   
    73   70   75 1   
    74   71   72 2   
    75   71   76 1   
    76   76   77 1   
    77   76   85 1   
    78   77   78 1   
    79   77   80 1   
    80   77   86 1   
    81   78   79 2   
    82   78   93 1   
    83   80   81 1   
    84   80   87 1   
    85   80   88 1   
    86   81   82 1   
    87   81   89 1   
    88   81   90 1   
    89   82   83 1   
    90   82   84 2   
    91   83   91 1   
    92   83   92 1   
    93   93   94 1   
    94   93  100 1   
    95   94   95 1   
    96   94   97 1   
    97   94  101 1   
    98   95   96 2   
    99   95  109 1   
   100   97   98 1   
   101   97   99 1   
   102   97  102 1   
   103   98  103 1   
   104   98  104 1   
   105   98  105 1   
   106   99  106 1   
   107   99  107 1   
   108   99  108 1   
   109  109  110 1   
   110  109  117 1   
   111  110  111 1   
   112  110  113 1   
   113  110  118 1   
   114  111  112 2   
   115  111  123 1   
   116  113  114 1   
   117  113  119 1   
   118  113  120 1   
   119  114  115 1   
   120  114  116 2   
   121  115  121 1   
   122  115  122 1   
   123  123  124 1   
   124  123  135 1   
   125  124  125 1   
   126  124  127 1   
   127  124  136 1   
   128  125  126 2   
   129  125  144 1   
   130  127  128 1   
   131  127  137 1   
   132  127  138 1   
   133  128  129 ar  
   134  128  130 ar  
   135  129  131 ar  
   136  129  139 1   
   137  130  132 ar  
   138  130  140 1   
   139  131  133 ar  
   140  131  141 1   
   141  132  133 ar  
   142  132  142 1   
   143  133  134 1   
   144  134  143 1   
   145  144  145 1   
   146  144  153 1   
   147  145  146 1   
   148  145  148 1   
   149  145  154 1   
   150  146  147 2   
   151  146  159 1   
   152  148  149 1   
   153  148  155 1   
   154  148  156 1   
   155  149  150 1   
   156  149  157 1   
   157  149  158 1   
   158  150  151 1   
   159  150  152 1   
   160  159  160 1   
   161  159  168 1   
   162  160  161 1   
   163  160  163 1   
   164  160  169 1   
   165  161  162 2   
   166  161  174 1   
   167  163  164 1   
   168  163  170 1   
   169  163  171 1   
   170  164  165 1   
   171  164  172 1   
   172  164  173 1   
   173  165  166 1   
   174  165  167 1   
   175  174  175 1   
   176  174  179 1   
   177  175  176 1   
   178  175  177 1   
   179  175  178 1   
   180  181  182 1   
   181  181  183 1   
   182  184  185 1   
   183  184  186 1   
   184  187  188 1   
   185  187  189 1   
@<TRIPOS>SUBSTRUCTURE
     1 MOL         1 TEMP              0 ****  ****    0 ROOT
