@<TRIPOS>MOLECULE
MOL
  181   177     1     0     0
SMALL
resp


@<TRIPOS>ATOM
      1 C1         -1.2150    6.2490    1.9140 c3        1 MOL     -0.399372
      2 C2         -2.5810    6.2030    1.3260 c         1 MOL      0.707941
      3 O1         -2.7530    6.6220    0.2250 o         1 MOL     -0.571874
      4 H1         -0.7800    7.2340    1.7430 hc        1 MOL      0.097045
      5 H2         -1.2740    6.0600    2.9850 hc        1 MOL      0.097045
      6 H3         -0.5900    5.4890    1.4440 hc        1 MOL      0.097045
      7 N1         -3.6580    5.7130    2.0920 n         1 MOL     -0.600715
      8 C3         -5.0550    5.7490    1.5860 c3        1 MOL      0.203611
      9 C4         -5.2490    4.6180    0.5880 c         1 MOL      0.512820
     10 O2         -5.5400    3.4780    0.9490 o         1 MOL     -0.512570
     11 C5         -5.9360    5.7180    2.7970 c3        1 MOL     -0.355312
     12 C6         -7.3960    5.9120    2.3830 c         1 MOL      0.745712
     13 O3         -7.8490    5.4290    1.3340 o         1 MOL     -0.726739
     14 O4         -8.1760    6.5730    3.0830 o         1 MOL     -0.726739
     15 H4         -3.4350    5.3290    3.0090 hn        1 MOL      0.304855
     16 H5         -5.0770    6.6830    1.0230 h1        1 MOL      0.048261
     17 H6         -5.6310    6.4940    3.5070 hc        1 MOL      0.064729
     18 H7         -5.7470    4.7600    3.2860 hc        1 MOL      0.064729
     19 N2         -5.1310    4.9130   -0.7720 n         1 MOL     -0.520567
     20 C7         -4.9850    3.9580   -1.8290 c3        1 MOL      0.428229
     21 C8         -3.5990    3.1630   -1.8890 c         1 MOL      0.499009
     22 O5         -2.6150    3.7350   -1.5040 o         1 MOL     -0.547566
     23 C9         -5.2200    4.7620   -3.1320 c3        1 MOL     -0.169913
     24 H8         -4.9520    5.8820   -1.0030 hn        1 MOL      0.262658
     25 H9         -5.7680    3.2000   -1.7490 h1        1 MOL     -0.029695
     26 H10        -5.4160    4.1300   -3.9980 hc        1 MOL      0.031154
     27 H11        -6.1100    5.3640   -2.9410 hc        1 MOL      0.031154
     28 H12        -4.3630    5.3690   -3.4150 hc        1 MOL      0.031154
     29 N3         -3.4930    1.8770   -2.3340 n         1 MOL     -0.606650
     30 C10        -4.3990    1.1230   -3.2060 c3        1 MOL      0.066554
     31 C11        -4.9220   -0.2220   -2.5520 c         1 MOL      0.353555
     32 O6         -4.0870   -0.9190   -1.9180 o         1 MOL     -0.448751
     33 C12        -3.6830    0.8650   -4.5170 c3        1 MOL     -0.220299
     34 C13        -2.5120   -0.0890   -4.3720 c         1 MOL      0.786727
     35 O7         -2.5280   -1.2390   -4.9470 o         1 MOL     -0.726920
     36 O8         -1.5030    0.2400   -3.6990 o         1 MOL     -0.726920
     37 H13        -2.5330    1.5550   -2.3170 hn        1 MOL      0.463328
     38 H14        -5.2400    1.7650   -3.4870 h1        1 MOL      0.079179
     39 H15        -3.3210    1.7880   -4.9730 hc        1 MOL      0.049749
     40 H16        -4.4930    0.4270   -5.0900 hc        1 MOL      0.049749
     41 N4         -6.2120   -0.5940   -2.6630 n         1 MOL     -0.264399
     42 C14        -6.8650   -1.7630   -1.9930 c3        1 MOL      0.093697
     43 C15        -8.2660   -1.5520   -1.4040 c         1 MOL      0.546752
     44 O9         -8.9480   -0.7670   -2.0610 o         1 MOL     -0.527320
     45 H17        -6.8770   -0.1130   -3.2440 hn        1 MOL      0.239262
     46 H18        -6.1780   -2.1900   -1.2690 h1        1 MOL      0.014914
     47 H19        -7.0750   -2.4930   -2.7740 h1        1 MOL      0.014914
     48 N5         -8.7620   -2.0460   -0.1940 n         1 MOL     -0.653605
     49 C16        -8.0290   -2.7630    0.8090 c3        1 MOL      0.438825
     50 C17        -6.7310   -2.1090    1.3520 c         1 MOL      0.393983
     51 O10        -6.6970   -0.9100    1.6130 o         1 MOL     -0.478520
     52 C18        -9.0340   -2.9970    1.8930 c3        1 MOL     -0.447246
     53 C19        -8.7340   -4.1470    2.8240 c         1 MOL      0.714401
     54 N6         -9.6680   -4.3710    3.6370 n         1 MOL     -0.758660
     55 O11        -7.7620   -4.8760    2.7540 o         1 MOL     -0.577212
     56 H20        -9.6750   -1.7360    0.1280 hn        1 MOL      0.347235
     57 H21        -7.7870   -3.7000    0.3040 h1        1 MOL     -0.029769
     58 H22        -9.9710   -3.3480    1.4770 hc        1 MOL      0.113564
     59 H23        -9.2370   -2.1030    2.4870 hc        1 MOL      0.113564
     60 H24       -10.2670   -3.5850    3.8270 hn        1 MOL      0.355711
     61 H25        -9.6370   -5.1960    4.2110 hn        1 MOL      0.355711
     62 N7         -5.6770   -2.8870    1.3900 n         1 MOL     -0.141254
     63 C20        -4.3850   -2.3490    1.6550 c3        1 MOL     -0.298034
     64 C21        -3.3610   -3.4220    1.8060 c         1 MOL      0.729379
     65 O12        -3.5310   -4.3060    2.6180 o         1 MOL     -0.577972
     66 H26        -5.7300   -3.8860    1.2740 hn        1 MOL      0.180899
     67 H27        -4.4540   -1.7700    2.5770 h1        1 MOL      0.120340
     68 H28        -4.1160   -1.7410    0.7910 h1        1 MOL      0.120340
     69 N8         -2.1870   -3.3790    1.1130 n         1 MOL     -0.351159
     70 C22        -1.1540   -4.4690    1.0180 c3        1 MOL     -0.304586
     71 C23         0.1720   -3.6320    0.8050 c         1 MOL      0.532099
     72 O13         0.2430   -2.6720   -0.0180 o         1 MOL     -0.431716
     73 C24        -1.3260   -5.4560   -0.2040 c3        1 MOL      0.599479
     74 C25        -2.3810   -6.4930    0.1850 c3        1 MOL     -0.591542
     75 O14        -1.7780   -4.6970   -1.2770 oh        1 MOL     -0.612501
     76 H29        -2.0410   -2.5760    0.5150 hn        1 MOL      0.192327
     77 H30        -1.1830   -4.9720    1.9860 h1        1 MOL      0.127388
     78 H31        -0.3900   -5.9660   -0.4260 h1        1 MOL     -0.022150
     79 H32        -0.9990   -4.5370   -1.8230 ho        1 MOL      0.343182
     80 H33        -2.7950   -6.9760   -0.6960 hc        1 MOL      0.147029
     81 H34        -2.0470   -7.2650    0.8720 hc        1 MOL      0.147029
     82 H35        -3.1790   -6.0560    0.7990 hc        1 MOL      0.147029
     83 N9          1.2730   -4.1120    1.4200 n         1 MOL     -0.488379
     84 C26         2.6770   -3.6230    1.3020 c3        1 MOL     -0.055662
     85 C27         3.3550   -3.9110   -0.1400 c         1 MOL      0.430093
     86 O15         3.2810   -5.0520   -0.5260 o         1 MOL     -0.535134
     87 C28         3.5180   -4.1070    2.5080 c3        1 MOL      0.073480
     88 C29         4.9180   -3.3440    2.5820 c3        1 MOL      0.199051
     89 C30         2.7520   -4.1410    3.8940 c3        1 MOL     -0.274716
     90 C31         5.7160   -4.0060    3.6710 c3        1 MOL     -0.341106
     91 H36         1.1400   -4.9950    1.8990 hn        1 MOL      0.314183
     92 H37         2.7030   -2.5490    1.4690 h1        1 MOL      0.234456
     93 H38         3.6630   -5.1680    2.3130 hc        1 MOL      0.004699
     94 H39         4.8220   -2.2870    2.8140 hc        1 MOL     -0.011084
     95 H40         5.4960   -3.4490    1.6660 hc        1 MOL     -0.011084
     96 H41         2.5270   -3.1320    4.2110 hc        1 MOL      0.066824
     97 H42         1.8810   -4.7800    3.7710 hc        1 MOL      0.066824
     98 H43         3.3130   -4.5670    4.7370 hc        1 MOL      0.066824
     99 H44         5.5570   -5.0690    3.4830 hc        1 MOL      0.068911
    100 H45         6.7730   -3.8190    3.5180 hc        1 MOL      0.068911
    101 H46         5.3650   -3.5920    4.6190 hc        1 MOL      0.068911
    102 N10         3.8810   -2.9010   -0.7730 n         1 MOL     -0.233134
    103 C32         4.7710   -3.0250   -2.0370 c3        1 MOL     -0.099086
    104 C33         5.7480   -1.8640   -2.1310 c         1 MOL      0.335080
    105 O16         6.5300   -1.7570   -3.1180 o         1 MOL     -0.521008
    106 C34         3.9050   -2.9430   -3.2850 c3        1 MOL      0.045554
    107 C35         2.8500   -1.8450   -3.1940 c         1 MOL      0.813444
    108 O17         1.6470   -2.1130   -2.9030 o         1 MOL     -0.774253
    109 O18         3.2790   -0.7420   -3.5100 o         1 MOL     -0.774253
    110 H47         3.5770   -2.0130   -0.4000 hn        1 MOL      0.127670
    111 H48         5.2440   -4.0090   -2.0560 h1        1 MOL      0.138109
    112 H49         3.4540   -3.9000   -3.5410 hc        1 MOL      0.000043
    113 H50         4.4020   -2.8500   -4.2480 hc        1 MOL      0.000043
    114 N11         5.9290   -1.0340   -1.0570 n         1 MOL     -0.086121
    115 C36         6.9740   -0.0040   -0.9820 c3        1 MOL      0.184067
    116 C37         6.4220    1.2140   -0.1520 c         1 MOL      0.283194
    117 O19         6.7800    1.3450    1.0630 o         1 MOL     -0.471206
    118 C38         8.2820   -0.4440   -0.3910 c3        1 MOL     -0.446364
    119 C39         9.3880    0.6830   -0.3950 ca        1 MOL      0.277676
    120 C40        10.0260    1.0430   -1.5780 ca        1 MOL     -0.242054
    121 C41         9.9130    1.1770    0.8530 ca        1 MOL     -0.242054
    122 C42        11.1600    1.8840   -1.5980 ca        1 MOL     -0.043278
    123 C43        11.0920    1.9380    0.8420 ca        1 MOL     -0.043278
    124 C44        11.7860    2.1670   -0.3710 ca        1 MOL     -0.231210
    125 H51         5.3560   -1.2000   -0.2380 hn        1 MOL      0.054080
    126 H52         7.0990    0.3380   -2.0100 h1        1 MOL      0.021589
    127 H53         8.7080   -1.2760   -0.9640 hc        1 MOL      0.139615
    128 H54         8.0360   -0.8290    0.6000 hc        1 MOL      0.139615
    129 H55         9.7010    0.5700   -2.4900 ha        1 MOL      0.134024
    130 H56         9.4080    0.9880    1.8030 ha        1 MOL      0.134024
    131 H57        11.5410    2.2560   -2.5360 ha        1 MOL      0.092900
    132 H58        11.4920    2.3690    1.7470 ha        1 MOL      0.092900
    133 H59        12.6300    2.8380   -0.3930 ha        1 MOL      0.116655
    134 N12         5.5940    2.1250   -0.6840 n         1 MOL     -0.064203
    135 C45         5.1310    3.3570   -0.0240 c3        1 MOL     -0.197702
    136 C46         4.5230    3.3850    1.3630 c         1 MOL      0.299496
    137 O20         4.3460    4.4210    2.0320 o         1 MOL     -0.502180
    138 C47         4.0640    3.8320   -1.0450 c3        1 MOL      0.068643
    139 C48         4.5240    3.3300   -2.3900 c3        1 MOL     -0.130589
    140 C49         4.9690    1.9540   -1.9720 c3        1 MOL     -0.137950
    141 H60         6.0380    3.9540   -0.0770 h1        1 MOL      0.140646
    142 H61         3.0450    3.4820   -0.8990 hc        1 MOL      0.027993
    143 H62         4.0410    4.9190   -1.1310 hc        1 MOL      0.027993
    144 H63         3.7500    3.3300   -3.1540 hc        1 MOL      0.043544
    145 H64         5.3970    3.8910   -2.7240 hc        1 MOL      0.043544
    146 H65         4.1440    1.2400   -2.0140 h1        1 MOL      0.139294
    147 H66         5.6280    1.6330   -2.7830 h1        1 MOL      0.139294
    148 N13         4.0490    2.2140    1.7260 n         1 MOL     -0.036667
    149 C50         3.5290    1.8910    3.0770 c3        1 MOL     -0.253412
    150 C51         4.6740    1.6650    4.1800 c         1 MOL      0.532991
    151 O21         4.7780    2.1870    5.2450 o         1 MOL     -0.540344
    152 C52         2.6450    0.6540    3.0240 c3        1 MOL      0.175162
    153 C53         1.7810    0.4240    1.8050 c3        1 MOL     -0.053979
    154 C54         2.6860   -0.0860    0.6430 c         1 MOL     -0.054256
    155 O22         2.1550   -0.1600   -0.4800 o         1 MOL     -0.425952
    156 O23         3.8730   -0.5010    0.8220 o         1 MOL     -0.425952
    157 H67         4.1680    1.4220    1.1110 hn        1 MOL      0.408939
    158 H68         2.8630    2.6530    3.4660 h1        1 MOL      0.097336
    159 H69         2.0120    0.7050    3.9030 hc        1 MOL     -0.043812
    160 H70         3.2870   -0.2180    3.1210 hc        1 MOL     -0.043812
    161 H71         1.2620    1.3360    1.5420 hc        1 MOL      0.046789
    162 H72         1.1150   -0.3500    2.1900 hc        1 MOL      0.046789
    163 N14         5.5970    0.8200    3.7400 n         1 MOL     -0.173231
    164 C55         6.8030    0.5090    4.5260 c3        1 MOL     -0.261983
    165 H73         7.4750    1.3670    4.5140 h1        1 MOL      0.101958
    166 H74         6.5200    0.2840    5.5540 h1        1 MOL      0.101958
    167 H75         7.3090   -0.3540    4.0910 h1        1 MOL      0.101958
    168 H76         5.5080    0.4500    2.8050 hn        1 MOL      0.180818
    169 Ca1         0.0140   -0.6510   -1.7260 Ca        1 MOL      1.686230
    170 O24        -2.1180   -0.5340   -0.2540 oh        1 MOL     -0.917222
    171 H77        -2.5220    0.2460    0.1280 ho        1 MOL      0.435969
    172 H78        -2.8290   -0.9830   -0.6980 ho        1 MOL      0.435969
    173 O25        -0.5650    2.0620   -1.5490 oh        1 MOL     -0.917222
    174 H79         0.3490    2.3370   -1.6680 ho        1 MOL      0.435969
    175 H80        -1.0410    2.8750   -1.4040 ho        1 MOL      0.435969
    176 O26        -1.6550   -2.5240   -2.8290 oh        1 MOL     -0.917222
    177 H81        -2.0840   -2.0700   -3.5500 ho        1 MOL      0.435969
    178 H82        -1.8570   -3.4460   -2.9730 ho        1 MOL      0.435969
    179 O27         1.6100    1.2550   -3.1140 oh        1 MOL     -0.917222
    180 H83         1.8090    1.7950   -3.8680 ho        1 MOL      0.435969
    181 H84         2.3100    0.6050   -3.0830 ho        1 MOL      0.435969
@<TRIPOS>BOND
     1    1    2 1   
     2    1    4 1   
     3    1    5 1   
     4    1    6 1   
     5    2    3 2   
     6    2    7 1   
     7    7    8 1   
     8    7   15 1   
     9    8    9 1   
    10    8   11 1   
    11    8   16 1   
    12    9   10 2   
    13    9   19 1   
    14   11   12 1   
    15   11   17 1   
    16   11   18 1   
    17   12   13 1   
    18   12   14 1   
    19   19   20 1   
    20   19   24 1   
    21   20   21 1   
    22   20   23 1   
    23   20   25 1   
    24   21   22 2   
    25   21   29 1   
    26   23   26 1   
    27   23   27 1   
    28   23   28 1   
    29   29   30 1   
    30   29   37 1   
    31   30   31 1   
    32   30   33 1   
    33   30   38 1   
    34   31   32 2   
    35   31   41 1   
    36   33   34 1   
    37   33   39 1   
    38   33   40 1   
    39   34   35 1   
    40   34   36 1   
    41   41   42 1   
    42   41   45 1   
    43   42   43 1   
    44   42   46 1   
    45   42   47 1   
    46   43   44 2   
    47   43   48 1   
    48   48   49 1   
    49   48   56 1   
    50   49   50 1   
    51   49   52 1   
    52   49   57 1   
    53   50   51 2   
    54   50   62 1   
    55   52   53 1   
    56   52   58 1   
    57   52   59 1   
    58   53   54 1   
    59   53   55 2   
    60   54   60 1   
    61   54   61 1   
    62   62   63 1   
    63   62   66 1   
    64   63   64 1   
    65   63   67 1   
    66   63   68 1   
    67   64   65 2   
    68   64   69 1   
    69   69   70 1   
    70   69   76 1   
    71   70   71 1   
    72   70   73 1   
    73   70   77 1   
    74   71   72 2   
    75   71   83 1   
    76   73   74 1   
    77   73   75 1   
    78   73   78 1   
    79   74   80 1   
    80   74   81 1   
    81   74   82 1   
    82   75   79 1   
    83   83   84 1   
    84   83   91 1   
    85   84   85 1   
    86   84   87 1   
    87   84   92 1   
    88   85   86 2   
    89   85  102 1   
    90   87   88 1   
    91   87   89 1   
    92   87   93 1   
    93   88   90 1   
    94   88   94 1   
    95   88   95 1   
    96   89   96 1   
    97   89   97 1   
    98   89   98 1   
    99   90   99 1   
   100   90  100 1   
   101   90  101 1   
   102  102  103 1   
   103  102  110 1   
   104  103  104 1   
   105  103  106 1   
   106  103  111 1   
   107  104  105 2   
   108  104  114 1   
   109  106  107 1   
   110  106  112 1   
   111  106  113 1   
   112  107  108 1   
   113  107  109 1   
   114  114  115 1   
   115  114  125 1   
   116  115  116 1   
   117  115  118 1   
   118  115  126 1   
   119  116  117 2   
   120  116  134 1   
   121  118  119 1   
   122  118  127 1   
   123  118  128 1   
   124  119  120 ar  
   125  119  121 ar  
   126  120  122 ar  
   127  120  129 1   
   128  121  123 ar  
   129  121  130 1   
   130  122  124 ar  
   131  122  131 1   
   132  123  124 ar  
   133  123  132 1   
   134  124  133 1   
   135  134  135 1   
   136  134  140 1   
   137  135  136 1   
   138  135  138 1   
   139  135  141 1   
   140  136  137 2   
   141  136  148 1   
   142  138  139 1   
   143  138  142 1   
   144  138  143 1   
   145  139  140 1   
   146  139  144 1   
   147  139  145 1   
   148  140  146 1   
   149  140  147 1   
   150  148  149 1   
   151  148  157 1   
   152  149  150 1   
   153  149  152 1   
   154  149  158 1   
   155  150  151 2   
   156  150  163 1   
   157  152  153 1   
   158  152  159 1   
   159  152  160 1   
   160  153  154 1   
   161  153  161 1   
   162  153  162 1   
   163  154  155 1   
   164  154  156 1   
   165  163  164 1   
   166  163  168 1   
   167  164  165 1   
   168  164  166 1   
   169  164  167 1   
   170  170  171 1   
   171  170  172 1   
   172  173  174 1   
   173  173  175 1   
   174  176  177 1   
   175  176  178 1   
   176  179  180 1   
   177  179  181 1   
@<TRIPOS>SUBSTRUCTURE
     1 MOL         1 TEMP              0 ****  ****    0 ROOT
