@<TRIPOS>MOLECULE
MOL
  179   176     1     0     0
SMALL
resp


@<TRIPOS>ATOM
      1 C1          1.5480   -4.6240    5.7830 c3        1 MOL     -0.337742
      2 C2          1.5520   -4.2540    4.2850 c         1 MOL      0.706726
      3 O1          0.9250   -4.9180    3.4690 o         1 MOL     -0.590178
      4 H1          2.0590   -3.8450    6.3490 hc        1 MOL      0.088256
      5 H2          0.5200   -4.7110    6.1320 hc        1 MOL      0.088256
      6 H3          2.0630   -5.5740    5.9250 hc        1 MOL      0.088256
      7 N1          2.4850   -3.3690    4.0110 n         1 MOL     -0.540609
      8 C3          2.7600   -2.9530    2.6740 c3        1 MOL     -0.055198
      9 C4          3.1890   -4.0280    1.6540 c         1 MOL      0.669337
     10 O2          4.3170   -4.6010    1.7100 o         1 MOL     -0.569507
     11 C5          3.7630   -1.7910    2.6220 c3        1 MOL      0.169661
     12 C6          3.7630   -1.0470    1.2370 c         1 MOL      0.476732
     13 O3          4.2140    0.1130    1.2440 o         1 MOL     -0.659871
     14 O4          3.2380   -1.5220    0.2030 o         1 MOL     -0.659871
     15 H4          3.1590   -3.1500    4.7380 hn        1 MOL      0.331987
     16 H5          1.8000   -2.5200    2.3880 h1        1 MOL     -0.063011
     17 H6          4.7510   -2.1710    2.8810 hc        1 MOL     -0.001870
     18 H7          3.5180   -1.1000    3.4230 hc        1 MOL     -0.001870
     19 N2          2.2960   -4.4110    0.7060 n         1 MOL     -0.355346
     20 C7          2.4860   -5.4850   -0.3800 c3        1 MOL      0.144340
     21 C8          3.5200   -5.1720   -1.5050 c         1 MOL      0.543419
     22 O5          3.6630   -5.9390   -2.4280 o         1 MOL     -0.544316
     23 C9          1.1070   -5.9010   -0.8670 c3        1 MOL     -0.096370
     24 C10         0.8910   -7.4000   -0.6400 c3        1 MOL      0.018559
     25 C11        -0.5610   -7.8730   -0.9350 c3        1 MOL     -0.039523
     26 C12        -0.6690   -9.3760   -0.5730 c3        1 MOL      0.011761
     27 N3         -2.0550   -9.8720   -0.7290 n4        1 MOL     -0.118383
     28 H8          1.3540   -4.0450    0.6740 hn        1 MOL      0.226181
     29 H9          2.8560   -6.3500    0.1740 h1        1 MOL      0.015876
     30 H10         1.0100   -5.5770   -1.9080 hc        1 MOL      0.047695
     31 H11         0.3240   -5.4460   -0.2580 hc        1 MOL      0.047695
     32 H12         1.1290   -7.7590    0.3640 hc        1 MOL      0.023337
     33 H13         1.6260   -7.8710   -1.2880 hc        1 MOL      0.023337
     34 H14        -0.7820   -7.7250   -1.9900 hc        1 MOL      0.035099
     35 H15        -1.2320   -7.2220   -0.3840 hc        1 MOL      0.035099
     36 H16        -0.3800   -9.4100    0.4800 hx        1 MOL      0.075810
     37 H17        -0.0420  -10.0650   -1.1280 hx        1 MOL      0.075810
     38 H18        -2.1370  -10.8600   -0.5440 hn        1 MOL      0.198258
     39 H19        -2.6870   -9.3580   -0.1270 hn        1 MOL      0.198258
     40 H20        -2.4380   -9.6640   -1.6420 hn        1 MOL      0.198258
     41 N4          4.2280   -4.0670   -1.3830 n         1 MOL     -0.330093
     42 C13         5.1250   -3.5860   -2.4580 c3        1 MOL      0.039420
     43 C14         6.2500   -2.7260   -1.8760 c         1 MOL      0.415932
     44 O6          7.2040   -2.3540   -2.5290 o         1 MOL     -0.552189
     45 C15         4.2840   -2.7310   -3.4380 c3        1 MOL     -0.199509
     46 C16         3.6030   -1.4920   -2.8850 c         1 MOL      0.664663
     47 O7          4.2840   -0.4780   -2.5200 o         1 MOL     -0.672882
     48 O8          2.3620   -1.4640   -2.7750 o         1 MOL     -0.672882
     49 H21         3.9660   -3.4090   -0.6670 hn        1 MOL      0.092077
     50 H22         5.5990   -4.4270   -2.9580 h1        1 MOL      0.113096
     51 H23         3.5390   -3.3820   -3.8870 hc        1 MOL      0.074103
     52 H24         4.9730   -2.3940   -4.2110 hc        1 MOL      0.074103
     53 N5          6.0540   -2.4160   -0.6150 n         1 MOL      0.000814
     54 C17         6.9700   -1.7760    0.3590 c3        1 MOL     -0.295658
     55 C18         7.1620   -0.2740    0.2600 c         1 MOL      0.472300
     56 O9          7.7370    0.2620    1.1990 o         1 MOL     -0.542706
     57 H25         5.2630   -2.8600   -0.1650 hn        1 MOL      0.057764
     58 H26         7.9570   -2.2410    0.2380 h1        1 MOL      0.142777
     59 H27         6.6720   -2.0150    1.3760 h1        1 MOL      0.142777
     60 N6          6.5330    0.3900   -0.7500 n         1 MOL      0.149221
     61 C19         6.7890    1.7650   -1.1310 c3        1 MOL     -0.124848
     62 C20         5.5010    2.6460   -0.9500 c         1 MOL      0.311935
     63 O10         4.3430    2.2080   -0.8620 o         1 MOL     -0.340673
     64 C21         7.1070    1.7580   -2.6260 c3        1 MOL     -0.187481
     65 C22         8.5040    1.3090   -2.8770 c         1 MOL      0.673362
     66 N7          8.7720    0.0650   -3.1060 n         1 MOL     -0.828830
     67 O11         9.4470    2.0280   -2.6750 o         1 MOL     -0.598555
     68 H28         5.8750   -0.1280   -1.3000 hn        1 MOL     -0.049494
     69 H29         7.6150    2.1340   -0.5160 h1        1 MOL      0.101327
     70 H30         6.9550    2.7500   -3.0530 hc        1 MOL      0.050784
     71 H31         6.4870    1.0830   -3.2000 hc        1 MOL      0.050784
     72 H32         7.9860   -0.5640   -3.1670 hn        1 MOL      0.391387
     73 H33         9.7290   -0.2380   -2.9430 hn        1 MOL      0.391387
     74 N8          5.6790    3.9710   -0.9710 n         1 MOL     -0.184175
     75 C23         4.6990    4.9930   -1.0020 c3        1 MOL     -0.185953
     76 C24         3.6210    4.8670    0.1140 c         1 MOL      0.589997
     77 O12         4.0050    4.6820    1.2580 o         1 MOL     -0.492000
     78 H34         6.6180    4.3290   -0.9330 hn        1 MOL      0.268279
     79 H35         4.1320    4.7000   -1.8910 h1        1 MOL      0.078052
     80 H36         5.1020    6.0010   -1.0930 h1        1 MOL      0.078052
     81 N9          2.3700    5.1860   -0.2220 n         1 MOL     -0.431148
     82 C25         1.3150    4.9980    0.8400 c3        1 MOL     -0.079510
     83 C26         1.2250    3.4660    1.1710 c         1 MOL      0.634026
     84 O13         1.7280    2.6120    0.4070 o         1 MOL     -0.612259
     85 C27        -0.0000    5.5680    0.2840 c3        1 MOL     -0.075937
     86 C28         0.0470    7.0680    0.2290 ca        1 MOL      0.050441
     87 C29         0.2110    7.8160    1.3820 ca        1 MOL     -0.133088
     88 C30        -0.0040    7.7170   -0.9970 ca        1 MOL     -0.133088
     89 C31         0.1380    9.2110    1.3430 ca        1 MOL     -0.244268
     90 C32        -0.0040    9.0690   -1.0260 ca        1 MOL     -0.244268
     91 C33         0.0490    9.8960    0.1680 ca        1 MOL      0.302194
     92 O14        -0.0400   11.2280    0.0660 oh        1 MOL     -0.428567
     93 H37         2.1260    5.3390   -1.1810 hn        1 MOL      0.264857
     94 H38         1.5590    5.5570    1.7430 h1        1 MOL      0.093163
     95 H39        -0.9260    5.2000    0.7220 hc        1 MOL      0.054914
     96 H40        -0.1350    5.1210   -0.7020 hc        1 MOL      0.054914
     97 H41         0.1950    7.3980    2.3790 ha        1 MOL      0.119919
     98 H42        -0.1710    7.1980   -1.9330 ha        1 MOL      0.119919
     99 H43         0.1820    9.6960    2.3130 ha        1 MOL      0.144465
    100 H44        -0.1530    9.6150   -1.9520 ha        1 MOL      0.144465
    101 H45         0.0760   11.5750    0.9610 ho        1 MOL      0.349356
    102 N10         0.5530    3.1870    2.2620 n         1 MOL     -0.508035
    103 C34         0.2370    1.8390    2.8300 c3        1 MOL     -0.046455
    104 C35        -0.0820    0.7220    1.7730 c         1 MOL      0.447212
    105 O15         0.8210    0.2680    1.1590 o         1 MOL     -0.445436
    106 C36         1.4310    1.3660    3.7640 c3        1 MOL      0.424322
    107 C37         1.1000    0.0730    4.6180 c3        1 MOL     -0.213693
    108 C38         1.9890    2.4620    4.7130 c3        1 MOL     -0.420141
    109 C39        -0.1430    0.2970    5.4760 c3        1 MOL     -0.100174
    110 H46         0.2950    3.9990    2.8220 hn        1 MOL      0.303970
    111 H47        -0.5860    1.9620    3.5210 h1        1 MOL      0.047201
    112 H48         2.2620    1.0630    3.1200 hc        1 MOL     -0.022524
    113 H49         1.9620   -0.0520    5.2780 hc        1 MOL      0.066130
    114 H50         1.0130   -0.7170    3.8760 hc        1 MOL      0.066130
    115 H51         1.2270    2.8220    5.3970 hc        1 MOL      0.106031
    116 H52         2.6710    1.9980    5.4200 hc        1 MOL      0.106031
    117 H53         2.5100    3.2750    4.2010 hc        1 MOL      0.106031
    118 H54        -0.1180   -0.3820    6.3280 hc        1 MOL      0.026065
    119 H55        -0.0720    1.2910    5.9240 hc        1 MOL      0.026065
    120 H56        -1.0800    0.1740    4.9390 hc        1 MOL      0.026065
    121 N11        -1.2470    0.1330    1.7400 n         1 MOL     -0.347932
    122 C40        -1.5940   -1.0170    0.8510 c3        1 MOL      0.012899
    123 C41        -2.9690   -0.9880    0.1750 c         1 MOL      0.800540
    124 O16        -3.3350   -1.8070   -0.5890 o         1 MOL     -0.569808
    125 C42        -1.6140   -2.2950    1.7730 c3        1 MOL     -0.017596
    126 O17        -2.8190   -2.2120    2.6250 oh        1 MOL     -0.576282
    127 H57        -1.9740    0.4370    2.3640 hn        1 MOL      0.288884
    128 H58        -0.8240   -1.2410    0.1040 h1        1 MOL      0.069951
    129 H59        -0.6580   -2.3500    2.2950 h1        1 MOL      0.096662
    130 H60        -1.7140   -3.2120    1.1950 h1        1 MOL      0.096662
    131 H61        -2.6410   -2.5220    3.5130 ho        1 MOL      0.397643
    132 N12        -3.6390    0.1590    0.4140 n         1 MOL     -0.799218
    133 C43        -5.0780    0.2400    0.0780 c3        1 MOL      0.329749
    134 C44        -5.3750    1.2120   -1.1470 c         1 MOL      0.635162
    135 O18        -4.8940    2.3540   -1.1850 o         1 MOL     -0.568173
    136 C45        -5.7390    0.7440    1.3130 c3        1 MOL     -0.219329
    137 H62        -3.3410    0.8460    1.0950 hn        1 MOL      0.309018
    138 H63        -5.5410   -0.6780   -0.2630 h1        1 MOL      0.059698
    139 H64        -5.6180    1.8130    1.4930 hc        1 MOL      0.056837
    140 H65        -6.7900    0.4910    1.2040 hc        1 MOL      0.056837
    141 H66        -5.2460    0.2570    2.1440 hc        1 MOL      0.056837
    142 N13        -6.1840    0.7920   -2.1580 n         1 MOL     -0.701064
    143 C46        -7.2810   -0.2010   -2.2120 c3        1 MOL      0.272668
    144 C47        -8.5380    0.3540   -2.9600 c         1 MOL      0.490105
    145 O19        -8.4460    1.0370   -3.9610 o         1 MOL     -0.514359
    146 C48        -6.7970   -1.4260   -2.9930 c3        1 MOL     -0.396185
    147 H67        -6.0490    1.2700   -3.0350 hn        1 MOL      0.351619
    148 H68        -7.5650   -0.5680   -1.2340 h1        1 MOL      0.045045
    149 H69        -6.1170   -2.0810   -2.4550 hc        1 MOL      0.116069
    150 H70        -7.6970   -1.9150   -3.3650 hc        1 MOL      0.116069
    151 H71        -6.3990   -1.0400   -3.9360 hc        1 MOL      0.116069
    152 N14        -9.7970    0.1130   -2.4680 n         1 MOL     -0.462483
    153 C49       -10.2050   -0.3890   -1.1540 c3        1 MOL     -0.135880
    154 C50        -9.7480    0.5220    0.0370 c         1 MOL      0.404749
    155 O20        -9.3100   -0.0510    1.0630 o         1 MOL     -0.527336
    156 C51       -11.7320   -0.4050   -1.1300 c3        1 MOL      0.192242
    157 C52       -12.3710   -1.2280    0.0830 c3        1 MOL     -0.316644
    158 C53       -13.8910   -1.4020   -0.1130 c         1 MOL      0.733606
    159 O21       -14.4850   -2.4820    0.0810 o         1 MOL     -0.647164
    160 O22       -14.5640   -0.4590   -0.5380 o         1 MOL     -0.647164
    161 H72       -10.4820    0.6520   -2.9670 hn        1 MOL      0.286722
    162 H73        -9.8340   -1.3970   -1.0380 h1        1 MOL      0.123917
    163 H74       -12.1640   -0.9110   -2.0000 hc        1 MOL     -0.008930
    164 H75       -12.1400    0.5970   -1.1020 hc        1 MOL     -0.008930
    165 H76       -12.2830   -0.7640    1.0660 hc        1 MOL      0.071293
    166 H77       -11.9440   -2.2220    0.1520 hc        1 MOL      0.071293
    167 N15        -9.8100    1.8440   -0.0410 n         1 MOL     -0.202348
    168 C54        -9.2950    2.7860    0.9880 c3        1 MOL     -0.285948
    169 H78        -8.3300    3.1800    0.6680 h1        1 MOL      0.128916
    170 H79        -9.9990    3.6090    1.1130 h1        1 MOL      0.128916
    171 H80        -9.1760    2.2610    1.9350 h1        1 MOL      0.128916
    172 H81       -10.1620    2.1880   -0.9230 hn        1 MOL      0.253007
    173 Ca1         2.4180    0.5380   -0.9470 Ca        1 MOL      1.682516
    174 O23         0.1000    0.2210   -2.1670 oh        1 MOL     -0.869611
    175 H82        -0.7600    0.6070   -2.0390 ho        1 MOL      0.423696
    176 H83         0.2810    0.3450   -3.1050 ho        1 MOL      0.423696
    177 O24         2.1950    2.4420   -2.7050 oh        1 MOL     -0.869611
    178 H84         2.5110    2.3690   -3.6050 ho        1 MOL      0.423696
    179 H85         1.8560    3.3350   -2.6400 ho        1 MOL      0.423696
@<TRIPOS>BOND
     1    1    2 1   
     2    1    4 1   
     3    1    5 1   
     4    1    6 1   
     5    2    3 2   
     6    2    7 1   
     7    7    8 1   
     8    7   15 1   
     9    8    9 1   
    10    8   11 1   
    11    8   16 1   
    12    9   10 2   
    13    9   19 1   
    14   11   12 1   
    15   11   17 1   
    16   11   18 1   
    17   12   13 1   
    18   12   14 1   
    19   19   20 1   
    20   19   28 1   
    21   20   21 1   
    22   20   23 1   
    23   20   29 1   
    24   21   22 2   
    25   21   41 1   
    26   23   24 1   
    27   23   30 1   
    28   23   31 1   
    29   24   25 1   
    30   24   32 1   
    31   24   33 1   
    32   25   26 1   
    33   25   34 1   
    34   25   35 1   
    35   26   27 1   
    36   26   36 1   
    37   26   37 1   
    38   27   38 1   
    39   27   39 1   
    40   27   40 1   
    41   41   42 1   
    42   41   49 1   
    43   42   43 1   
    44   42   45 1   
    45   42   50 1   
    46   43   44 2   
    47   43   53 1   
    48   45   46 1   
    49   45   51 1   
    50   45   52 1   
    51   46   47 1   
    52   46   48 1   
    53   53   54 1   
    54   53   57 1   
    55   54   55 1   
    56   54   58 1   
    57   54   59 1   
    58   55   56 2   
    59   55   60 1   
    60   60   61 1   
    61   60   68 1   
    62   61   62 1   
    63   61   64 1   
    64   61   69 1   
    65   62   63 2   
    66   62   74 1   
    67   64   65 1   
    68   64   70 1   
    69   64   71 1   
    70   65   66 1   
    71   65   67 2   
    72   66   72 1   
    73   66   73 1   
    74   74   75 1   
    75   74   78 1   
    76   75   76 1   
    77   75   79 1   
    78   75   80 1   
    79   76   77 2   
    80   76   81 1   
    81   81   82 1   
    82   81   93 1   
    83   82   83 1   
    84   82   85 1   
    85   82   94 1   
    86   83   84 2   
    87   83  102 1   
    88   85   86 1   
    89   85   95 1   
    90   85   96 1   
    91   86   87 ar  
    92   86   88 ar  
    93   87   89 ar  
    94   87   97 1   
    95   88   90 ar  
    96   88   98 1   
    97   89   91 ar  
    98   89   99 1   
    99   90   91 ar  
   100   90  100 1   
   101   91   92 1   
   102   92  101 1   
   103  102  103 1   
   104  102  110 1   
   105  103  104 1   
   106  103  106 1   
   107  103  111 1   
   108  104  105 2   
   109  104  121 1   
   110  106  107 1   
   111  106  108 1   
   112  106  112 1   
   113  107  109 1   
   114  107  113 1   
   115  107  114 1   
   116  108  115 1   
   117  108  116 1   
   118  108  117 1   
   119  109  118 1   
   120  109  119 1   
   121  109  120 1   
   122  121  122 1   
   123  121  127 1   
   124  122  123 1   
   125  122  125 1   
   126  122  128 1   
   127  123  124 2   
   128  123  132 1   
   129  125  126 1   
   130  125  129 1   
   131  125  130 1   
   132  126  131 1   
   133  132  133 1   
   134  132  137 1   
   135  133  134 1   
   136  133  136 1   
   137  133  138 1   
   138  134  135 2   
   139  134  142 1   
   140  136  139 1   
   141  136  140 1   
   142  136  141 1   
   143  142  143 1   
   144  142  147 1   
   145  143  144 1   
   146  143  146 1   
   147  143  148 1   
   148  144  145 2   
   149  144  152 1   
   150  146  149 1   
   151  146  150 1   
   152  146  151 1   
   153  152  153 1   
   154  152  161 1   
   155  153  154 1   
   156  153  156 1   
   157  153  162 1   
   158  154  155 2   
   159  154  167 1   
   160  156  157 1   
   161  156  163 1   
   162  156  164 1   
   163  157  158 1   
   164  157  165 1   
   165  157  166 1   
   166  158  159 1   
   167  158  160 1   
   168  167  168 1   
   169  167  172 1   
   170  168  169 1   
   171  168  170 1   
   172  168  171 1   
   173  174  175 1   
   174  174  176 1   
   175  177  178 1   
   176  177  179 1   
@<TRIPOS>SUBSTRUCTURE
     1 MOL         1 TEMP              0 ****  ****    0 ROOT
