@<TRIPOS>MOLECULE
MOL
  185   180     1     0     0
SMALL
resp


@<TRIPOS>ATOM
      1 C1         -4.4670    1.8590   -2.1050 c3        1 MOL     -0.226850
      2 C2         -5.4330    2.0730   -0.9160 c         1 MOL      0.647574
      3 O1         -5.1720    1.7530    0.2810 o         1 MOL     -0.520203
      4 H1         -4.5130    0.8190   -2.4270 hc        1 MOL      0.042813
      5 H2         -4.7580    2.5070   -2.9310 hc        1 MOL      0.042813
      6 H3         -3.4500    2.0980   -1.7950 hc        1 MOL      0.042813
      7 N1         -6.6010    2.5750   -1.2510 n         1 MOL     -0.407956
      8 C3         -7.8160    2.6620   -0.4010 c3        1 MOL      0.049044
      9 C4         -8.0780    1.3980    0.4570 c         1 MOL      0.552445
     10 O2         -8.3480    1.4660    1.6340 o         1 MOL     -0.498940
     11 C5         -8.0060    4.0240    0.2930 c3        1 MOL     -0.198231
     12 C6         -7.7750    5.2990   -0.4790 c         1 MOL      0.737097
     13 O3         -6.7430    5.9070   -0.1910 o         1 MOL     -0.678419
     14 O4         -8.5960    5.6630   -1.3560 o         1 MOL     -0.678419
     15 H4         -6.7600    2.7780   -2.2330 hn        1 MOL      0.274642
     16 H5         -8.6710    2.7000   -1.0670 h1        1 MOL      0.018201
     17 H6         -7.2500    4.0220    1.0850 hc        1 MOL      0.053193
     18 H7         -8.9770    4.0620    0.7800 hc        1 MOL      0.053193
     19 N2         -7.8390    0.1860   -0.1570 n         1 MOL     -0.407840
     20 C7         -8.2410   -1.1550    0.3670 c3        1 MOL     -0.097087
     21 C8         -7.0170   -2.1240    0.5400 c         1 MOL      0.656924
     22 O5         -7.2510   -3.2420    0.8850 o         1 MOL     -0.581702
     23 C9         -9.3730   -1.7610   -0.5590 c3        1 MOL     -0.011626
     24 C10       -10.6680   -1.0260   -0.3160 c3        1 MOL     -0.080594
     25 C11       -11.7160   -1.4750   -1.3070 c3        1 MOL     -0.007437
     26 C12       -11.9720   -3.0030   -1.2310 c3        1 MOL     -0.108506
     27 N3        -13.2720   -3.3130   -1.8800 n4        1 MOL     -0.063512
     28 H8         -7.5340    0.2430   -1.1260 hn        1 MOL      0.194511
     29 H9         -8.6740   -0.9330    1.3400 h1        1 MOL      0.133774
     30 H10        -9.4650   -2.8350   -0.4500 hc        1 MOL      0.027070
     31 H11        -9.0560   -1.7480   -1.6100 hc        1 MOL      0.027070
     32 H12       -10.3870    0.0190   -0.4030 hc        1 MOL      0.054376
     33 H13       -11.0110   -1.2880    0.6840 hc        1 MOL      0.054376
     34 H14       -11.3670   -1.1800   -2.2910 hc        1 MOL      0.034895
     35 H15       -12.6500   -0.9140   -1.2350 hc        1 MOL      0.034895
     36 H16       -12.2030   -3.2020   -0.1830 hx        1 MOL      0.113161
     37 H17       -11.1500   -3.5830   -1.6370 hx        1 MOL      0.113161
     38 H18       -13.5120   -4.2940   -1.9360 hn        1 MOL      0.207751
     39 H19       -14.0360   -2.7040   -1.6240 hn        1 MOL      0.207751
     40 H20       -13.0770   -3.0210   -2.8240 hn        1 MOL      0.207751
     41 N4         -5.7640   -1.6700    0.3010 n         1 MOL     -0.438181
     42 C13        -4.5550   -2.4630    0.4610 c3        1 MOL      0.014339
     43 C14        -4.0150   -2.5490    1.9440 c         1 MOL      0.569640
     44 O6         -4.0890   -1.6630    2.7780 o         1 MOL     -0.468882
     45 C15        -3.5840   -1.9360   -0.5540 c3        1 MOL     -0.282881
     46 C16        -2.3000   -2.8220   -0.7050 c         1 MOL      0.772166
     47 O7         -1.2390   -2.4630   -0.1630 o         1 MOL     -0.775851
     48 O8         -2.3730   -3.9980   -1.0370 o         1 MOL     -0.775851
     49 H21        -5.6510   -0.7610   -0.1210 hn        1 MOL      0.253088
     50 H22        -4.7770   -3.4560    0.0630 h1        1 MOL      0.082441
     51 H23        -3.2790   -0.9830   -0.1080 hc        1 MOL      0.102234
     52 H24        -4.1070   -1.8540   -1.5070 hc        1 MOL      0.102234
     53 N5         -3.3320   -3.6760    2.3330 n         1 MOL     -0.475084
     54 C17        -2.7000   -3.7140    3.6980 c3        1 MOL      0.026285
     55 C18        -1.5450   -2.6490    3.8790 c         1 MOL      0.297941
     56 O9         -1.4310   -2.1220    5.0250 o         1 MOL     -0.500547
     57 H25        -3.3090   -4.4680    1.7170 hn        1 MOL      0.275118
     58 H26        -2.3990   -4.7380    3.8960 h1        1 MOL      0.076434
     59 H27        -3.4950   -3.5030    4.4260 h1        1 MOL      0.076434
     60 N6         -0.7380   -2.3180    2.8850 n         1 MOL     -0.019446
     61 C19         0.3820   -1.3870    2.9890 c3        1 MOL     -0.173502
     62 C20        -0.0860    0.0830    2.9660 c         1 MOL      0.617323
     63 O10         0.6380    0.9400    3.4060 o         1 MOL     -0.540524
     64 C21         1.3790   -1.4290    1.8040 c3        1 MOL     -0.393611
     65 C22         2.1280   -2.7630    1.7670 c         1 MOL      0.704700
     66 N7          3.2210   -2.9890    2.5020 n         1 MOL     -0.729201
     67 O11         1.7350   -3.6010    1.0440 o         1 MOL     -0.621096
     68 H28        -0.8830   -2.6990    1.9660 hn        1 MOL      0.063457
     69 H29         0.9150   -1.4190    3.9420 h1        1 MOL      0.112758
     70 H30         2.1740   -0.7020    1.9360 hc        1 MOL      0.172952
     71 H31         0.9640   -1.2210    0.8190 hc        1 MOL      0.172952
     72 H32         3.5420   -2.2490    3.1160 hn        1 MOL      0.355584
     73 H33         3.4480   -3.9650    2.5910 hn        1 MOL      0.355584
     74 N8         -1.3430    0.3530    2.5770 n         1 MOL     -0.374106
     75 C23        -1.9520    1.6230    2.2550 c3        1 MOL     -0.064994
     76 C24        -1.3190    2.2720    1.1020 c         1 MOL      0.640754
     77 O12        -1.0840    1.6260    0.0530 o         1 MOL     -0.588728
     78 H34        -1.9540   -0.4350    2.4000 hn        1 MOL      0.307214
     79 H35        -1.7110    2.2570    3.1090 h1        1 MOL      0.080736
     80 H36        -3.0220    1.5680    2.0840 h1        1 MOL      0.080736
     81 N9         -1.0060    3.5410    1.2340 n         1 MOL     -0.720834
     82 C25        -0.1660    4.4170    0.3000 c3        1 MOL      0.506167
     83 C26         1.2070    3.9550   -0.0850 c         1 MOL      0.205745
     84 O13         2.1670    4.7080    0.0230 o         1 MOL     -0.512491
     85 C27        -0.8900    4.9250   -0.8490 c3        1 MOL     -0.286729
     86 C28        -0.1750    6.1840   -1.3580 ca        1 MOL     -0.089373
     87 C29        -0.2570    7.3550   -0.5970 ca        1 MOL     -0.024062
     88 C30         0.6690    6.2320   -2.5150 ca        1 MOL     -0.024062
     89 C31         0.2420    8.5490   -1.0250 ca        1 MOL     -0.341782
     90 C32         1.2850    7.4590   -2.9420 ca        1 MOL     -0.341782
     91 C33         1.0410    8.6010   -2.1890 ca        1 MOL      0.377670
     92 O14         1.6710    9.7810   -2.3910 oh        1 MOL     -0.473755
     93 H37        -1.1390    3.9800    2.1220 hn        1 MOL      0.356322
     94 H38        -0.0350    5.2510    0.9980 h1        1 MOL      0.011349
     95 H39        -1.9420    5.1150   -0.6830 hc        1 MOL      0.135698
     96 H40        -0.8110    4.1150   -1.5640 hc        1 MOL      0.135698
     97 H41        -0.7610    7.2540    0.3540 ha        1 MOL      0.110558
     98 H42         0.7900    5.4000   -3.1970 ha        1 MOL      0.110558
     99 H43         0.0350    9.4850   -0.5200 ha        1 MOL      0.169695
    100 H44         2.0560    7.4920   -3.6990 ha        1 MOL      0.169695
    101 H45         2.2900    9.7610   -3.1300 ho        1 MOL      0.352257
    102 N10         1.3810    2.6710   -0.4240 n         1 MOL     -0.172248
    103 C34         2.6460    1.8820   -0.6450 c3        1 MOL     -0.070141
    104 C35         3.5900    1.7980    0.5780 c         1 MOL      0.382567
    105 O15         3.9400    0.6850    0.8680 o         1 MOL     -0.471818
    106 C36         3.3590    2.3900   -1.9450 c3        1 MOL      0.172545
    107 C37         2.5300    2.1100   -3.2210 c3        1 MOL      0.007244
    108 C38         4.7470    1.6580   -2.0190 c3        1 MOL     -0.361057
    109 C39         2.9110    2.9040   -4.4810 c3        1 MOL     -0.300626
    110 H46         0.5730    2.0620   -0.4600 hn        1 MOL      0.225879
    111 H47         2.3080    0.8600   -0.8170 h1        1 MOL      0.062616
    112 H48         3.5440    3.4690   -1.9370 hc        1 MOL      0.018763
    113 H49         1.4920    2.4390   -3.0880 hc        1 MOL      0.022767
    114 H50         2.5240    1.0410   -3.4430 hc        1 MOL      0.022767
    115 H51         4.6170    0.5830   -2.0810 hc        1 MOL      0.093595
    116 H52         5.2450    2.0760   -2.8940 hc        1 MOL      0.093595
    117 H53         5.4160    2.0110   -1.2300 hc        1 MOL      0.093595
    118 H54         3.9950    2.8600   -4.6290 hc        1 MOL      0.072527
    119 H55         2.4640    2.3340   -5.2980 hc        1 MOL      0.072527
    120 H56         2.5470    3.9280   -4.4200 hc        1 MOL      0.072527
    121 N11         3.9720    2.9260    1.2500 n         1 MOL     -0.238125
    122 C40         4.8310    3.0990    2.4610 c3        1 MOL     -0.011192
    123 C41         6.2700    2.7140    2.3120 c         1 MOL      0.463383
    124 O16         6.9440    2.4390    3.3800 o         1 MOL     -0.488960
    125 C42         4.7400    4.4990    3.0030 c3        1 MOL      0.214039
    126 O17         5.5660    5.5000    2.3720 oh        1 MOL     -0.569922
    127 H57         3.6750    3.7920    0.8240 hn        1 MOL      0.206086
    128 H58         4.4770    2.4690    3.2730 h1        1 MOL      0.057236
    129 H59         5.0670    4.4290    4.0430 h1        1 MOL      0.031213
    130 H60         3.6650    4.7000    3.0290 h1        1 MOL      0.031213
    131 H61         5.0140    5.7960    1.6490 ho        1 MOL      0.375389
    132 N12         6.8060    2.7220    1.0530 n         1 MOL     -0.248078
    133 C43         8.1690    2.3240    0.7120 c3        1 MOL      0.174671
    134 C44         8.3140    0.8130    1.0850 c         1 MOL      0.417044
    135 O18         9.3230    0.4150    1.7590 o         1 MOL     -0.509006
    136 C45         9.2540    3.2230    1.3130 c3        1 MOL     -0.418148
    137 H62         6.3410    3.3470    0.4030 hn        1 MOL      0.174445
    138 H63         8.1850    2.4410   -0.3690 h1        1 MOL      0.050349
    139 H64         9.1990    3.1440    2.3950 hc        1 MOL      0.124045
    140 H65        10.1840    2.8910    0.8390 hc        1 MOL      0.124045
    141 H66         9.1480    4.2820    1.0690 hc        1 MOL      0.124045
    142 N13         7.4090   -0.0620    0.6930 n         1 MOL     -0.420355
    143 C46         7.4470   -1.5180    0.8580 c3        1 MOL      0.280952
    144 C47         6.8510   -2.3120   -0.3140 c         1 MOL      0.501308
    145 O19         6.2910   -1.7020   -1.1860 o         1 MOL     -0.439995
    146 C48         6.7510   -1.8010    2.1520 c3        1 MOL     -0.102202
    147 H67         6.6590    0.1780    0.0520 hn        1 MOL      0.146378
    148 H68         8.4500   -1.8500    1.1470 h1        1 MOL     -0.007031
    149 H69         5.6710   -1.6110    2.1660 hc        1 MOL      0.032181
    150 H70         6.8220   -2.8570    2.4090 hc        1 MOL      0.032181
    151 H71         7.2590   -1.2660    2.9480 hc        1 MOL      0.032181
    152 N14         7.0170   -3.5990   -0.3660 n         1 MOL     -0.641545
    153 C49         6.5200   -4.4190   -1.5190 c3        1 MOL      0.067089
    154 C50         6.9370   -3.9730   -2.9560 c         1 MOL      0.343497
    155 O20         6.3920   -4.4590   -3.9860 o         1 MOL     -0.461008
    156 C51         5.0410   -4.6190   -1.3160 c3        1 MOL      0.139296
    157 C52         4.4340   -5.9110   -1.8850 c3        1 MOL     -0.438357
    158 C53         2.9010   -6.0040   -1.5740 c         1 MOL      0.925477
    159 O21         2.4580   -6.0120   -0.4130 o         1 MOL     -0.852081
    160 O22         1.9530   -5.9410   -2.3830 o         1 MOL     -0.852081
    161 H72         7.6610   -4.0160    0.2850 hn        1 MOL      0.342939
    162 H73         7.0640   -5.3480   -1.3370 h1        1 MOL      0.095446
    163 H74         4.4560   -3.7590   -1.6230 hc        1 MOL      0.023851
    164 H75         4.8390   -4.6190   -0.2390 hc        1 MOL      0.023851
    165 H76         5.0130   -6.7610   -1.5350 hc        1 MOL      0.099937
    166 H77         4.5370   -5.9110   -2.9660 hc        1 MOL      0.099937
    167 N15         7.9760   -3.1130   -3.0460 n         1 MOL     -0.257846
    168 C54         8.2700   -2.4390   -4.3060 c3        1 MOL     -0.093951
    169 H78         8.5080   -1.3930   -4.1110 h1        1 MOL      0.076672
    170 H79         9.1210   -2.9210   -4.7860 h1        1 MOL      0.076672
    171 H80         7.4010   -2.4980   -4.9610 h1        1 MOL      0.076672
    172 H81         8.3720   -2.8180   -2.1700 hn        1 MOL      0.223135
    173 Ca1         0.1940   -4.8190   -0.9260 Ca        1 MOL      1.801513
    174 O23        -0.8070   -7.3620   -0.8090 oh        1 MOL     -0.770047
    175 H82        -1.5960   -7.8840   -0.6440 ho        1 MOL      0.394119
    176 H83        -0.1710   -7.6870   -0.1800 ho        1 MOL      0.394119
    177 O24        -0.4520   -4.5680   -3.4530 oh        1 MOL     -0.770047
    178 H84        -0.6480   -5.3180   -4.0170 ho        1 MOL      0.394119
    179 H85        -0.5620   -3.8090   -4.0150 ho        1 MOL      0.394119
    180 O25         1.3400   -2.7350   -1.9650 oh        1 MOL     -0.770047
    181 H86         2.1970   -2.4690   -1.6250 ho        1 MOL      0.394119
    182 H87         1.2150   -2.1930   -2.7350 ho        1 MOL      0.394119
    183 O26        -0.6510   -5.6690    1.4160 oh        1 MOL     -0.770047
    184 H88        -1.2180   -6.3720    1.7340 ho        1 MOL      0.394119
    185 H89        -0.1930   -5.3570    2.1990 ho        1 MOL      0.394119
@<TRIPOS>BOND
     1    1    2 1   
     2    1    4 1   
     3    1    5 1   
     4    1    6 1   
     5    2    3 2   
     6    2    7 1   
     7    7    8 1   
     8    7   15 1   
     9    8    9 1   
    10    8   11 1   
    11    8   16 1   
    12    9   10 2   
    13    9   19 1   
    14   11   12 1   
    15   11   17 1   
    16   11   18 1   
    17   12   13 1   
    18   12   14 1   
    19   19   20 1   
    20   19   28 1   
    21   20   21 1   
    22   20   23 1   
    23   20   29 1   
    24   21   22 2   
    25   21   41 1   
    26   23   24 1   
    27   23   30 1   
    28   23   31 1   
    29   24   25 1   
    30   24   32 1   
    31   24   33 1   
    32   25   26 1   
    33   25   34 1   
    34   25   35 1   
    35   26   27 1   
    36   26   36 1   
    37   26   37 1   
    38   27   38 1   
    39   27   39 1   
    40   27   40 1   
    41   41   42 1   
    42   41   49 1   
    43   42   43 1   
    44   42   45 1   
    45   42   50 1   
    46   43   44 2   
    47   43   53 1   
    48   45   46 1   
    49   45   51 1   
    50   45   52 1   
    51   46   47 1   
    52   46   48 1   
    53   53   54 1   
    54   53   57 1   
    55   54   55 1   
    56   54   58 1   
    57   54   59 1   
    58   55   56 2   
    59   55   60 1   
    60   60   61 1   
    61   60   68 1   
    62   61   62 1   
    63   61   64 1   
    64   61   69 1   
    65   62   63 2   
    66   62   74 1   
    67   64   65 1   
    68   64   70 1   
    69   64   71 1   
    70   65   66 1   
    71   65   67 2   
    72   66   72 1   
    73   66   73 1   
    74   74   75 1   
    75   74   78 1   
    76   75   76 1   
    77   75   79 1   
    78   75   80 1   
    79   76   77 2   
    80   76   81 1   
    81   81   82 1   
    82   81   93 1   
    83   82   83 1   
    84   82   85 1   
    85   82   94 1   
    86   83   84 2   
    87   83  102 1   
    88   85   86 1   
    89   85   95 1   
    90   85   96 1   
    91   86   87 ar  
    92   86   88 ar  
    93   87   89 ar  
    94   87   97 1   
    95   88   90 ar  
    96   88   98 1   
    97   89   91 ar  
    98   89   99 1   
    99   90   91 ar  
   100   90  100 1   
   101   91   92 1   
   102   92  101 1   
   103  102  103 1   
   104  102  110 1   
   105  103  104 1   
   106  103  106 1   
   107  103  111 1   
   108  104  105 2   
   109  104  121 1   
   110  106  107 1   
   111  106  108 1   
   112  106  112 1   
   113  107  109 1   
   114  107  113 1   
   115  107  114 1   
   116  108  115 1   
   117  108  116 1   
   118  108  117 1   
   119  109  118 1   
   120  109  119 1   
   121  109  120 1   
   122  121  122 1   
   123  121  127 1   
   124  122  123 1   
   125  122  125 1   
   126  122  128 1   
   127  123  124 2   
   128  123  132 1   
   129  125  126 1   
   130  125  129 1   
   131  125  130 1   
   132  126  131 1   
   133  132  133 1   
   134  132  137 1   
   135  133  134 1   
   136  133  136 1   
   137  133  138 1   
   138  134  135 2   
   139  134  142 1   
   140  136  139 1   
   141  136  140 1   
   142  136  141 1   
   143  142  143 1   
   144  142  147 1   
   145  143  144 1   
   146  143  146 1   
   147  143  148 1   
   148  144  145 2   
   149  144  152 1   
   150  146  149 1   
   151  146  150 1   
   152  146  151 1   
   153  152  153 1   
   154  152  161 1   
   155  153  154 1   
   156  153  156 1   
   157  153  162 1   
   158  154  155 2   
   159  154  167 1   
   160  156  157 1   
   161  156  163 1   
   162  156  164 1   
   163  157  158 1   
   164  157  165 1   
   165  157  166 1   
   166  158  159 1   
   167  158  160 1   
   168  167  168 1   
   169  167  172 1   
   170  168  169 1   
   171  168  170 1   
   172  168  171 1   
   173  174  175 1   
   174  174  176 1   
   175  177  178 1   
   176  177  179 1   
   177  180  181 1   
   178  180  182 1   
   179  183  184 1   
   180  183  185 1   
@<TRIPOS>SUBSTRUCTURE
     1 MOL         1 TEMP              0 ****  ****    0 ROOT
