@<TRIPOS>MOLECULE
MOL
  189   185     1     0     0
SMALL
resp


@<TRIPOS>ATOM
      1 C1         12.7680    5.1950   -2.4170 c3        1 MOL     -0.377663
      2 C2         12.4450    3.9440   -1.5720 c         1 MOL      0.643677
      3 O1         13.3840    3.1910   -1.3560 o         1 MOL     -0.552787
      4 H1         11.9170    5.8770   -2.3950 hc        1 MOL      0.103550
      5 H2         13.6450    5.6950   -2.0070 hc        1 MOL      0.103550
      6 H3         12.9670    4.8970   -3.4470 hc        1 MOL      0.103550
      7 N1         11.2500    3.7450   -1.0220 n         1 MOL     -0.241495
      8 C3         10.9410    2.6770   -0.0720 c3        1 MOL     -0.582422
      9 C4          9.5690    2.1130   -0.3550 c         1 MOL      0.732481
     10 O2          8.5720    2.8650   -0.5310 o         1 MOL     -0.678400
     11 C5         11.1140    3.2310    1.3070 c3        1 MOL      0.255592
     12 C6         10.5030    4.5880    1.5950 c         1 MOL      0.538106
     13 O3         11.2370    5.5900    1.8370 o         1 MOL     -0.669958
     14 O4          9.2320    4.5760    1.7190 o         1 MOL     -0.669958
     15 H4         10.5010    4.4100   -1.1650 hn        1 MOL      0.200005
     16 H5         11.7160    1.9150   -0.1920 h1        1 MOL      0.173057
     17 H6         12.1970    3.2560    1.4720 hc        1 MOL      0.022446
     18 H7         10.6380    2.5650    2.0180 hc        1 MOL      0.022446
     19 N2          9.4340    0.7290   -0.3040 n         1 MOL     -0.445753
     20 C7          8.1410    0.0570   -0.4600 c3        1 MOL     -0.029134
     21 C8          7.4430   -0.1970    0.8650 c         1 MOL      0.658540
     22 O5          8.0910   -0.4600    1.8660 o         1 MOL     -0.528096
     23 C9          8.4020   -1.2290   -1.2140 c3        1 MOL     -0.327948
     24 C10         7.2090   -2.2020   -1.3540 c3        1 MOL      0.188045
     25 C11         7.6050   -3.4770   -2.2370 c3        1 MOL     -0.216168
     26 C12         7.6740   -3.3590   -3.8010 c3        1 MOL      0.059528
     27 N3          7.9310   -4.6800   -4.4200 n4        1 MOL     -0.221192
     28 H8         10.1860    0.1760    0.0620 hn        1 MOL      0.321061
     29 H9          7.3980    0.6830   -0.9620 h1        1 MOL      0.088453
     30 H10         9.3430   -1.6560   -0.8690 hc        1 MOL      0.100579
     31 H11         8.6460   -0.8920   -2.2210 hc        1 MOL      0.100579
     32 H12         6.4330   -1.5870   -1.8040 hc        1 MOL      0.026016
     33 H13         6.9310   -2.7270   -0.4420 hc        1 MOL      0.026016
     34 H14         6.8550   -4.2450   -2.0300 hc        1 MOL      0.090373
     35 H15         8.5270   -3.8220   -1.7650 hc        1 MOL      0.090373
     36 H16         8.4570   -2.6530   -4.0960 hx        1 MOL      0.066638
     37 H17         6.7610   -2.9690   -4.2510 hx        1 MOL      0.066638
     38 H18         7.7300   -4.7380   -5.4050 hn        1 MOL      0.229737
     39 H19         8.9000   -4.8790   -4.2070 hn        1 MOL      0.229737
     40 H20         7.4450   -5.4680   -4.0190 hn        1 MOL      0.229737
     41 N4          6.1490   -0.1400    0.8420 n         1 MOL     -0.543956
     42 C13         5.1610   -0.3100    1.9360 c3        1 MOL      0.155486
     43 C14         3.7520   -0.6350    1.3570 c         1 MOL      0.345746
     44 O6          3.5480   -0.3050    0.1570 o         1 MOL     -0.510243
     45 C15         5.2020    0.8510    2.9780 c3        1 MOL     -0.037515
     46 C16         5.7310    2.1630    2.3900 c         1 MOL      0.631671
     47 O7          5.0970    2.6710    1.4770 o         1 MOL     -0.712032
     48 O8          6.7700    2.6470    2.8820 o         1 MOL     -0.712032
     49 H21         5.8240    0.2190   -0.0430 hn        1 MOL      0.234372
     50 H22         5.4930   -1.1700    2.5080 h1        1 MOL      0.046033
     51 H23         6.0060    0.5320    3.6470 hc        1 MOL      0.047119
     52 H24         4.2810    0.9620    3.5530 hc        1 MOL      0.047119
     53 N5          2.8310   -1.2130    2.1040 n         1 MOL     -0.091698
     54 C17         3.0190   -1.9160    3.3620 c3        1 MOL     -0.438157
     55 C18         1.8680   -2.7540    3.8900 c         1 MOL      0.766054
     56 O9          1.9960   -3.0060    5.0910 o         1 MOL     -0.534655
     57 H25         2.0120   -1.2520    1.5060 hn        1 MOL      0.176328
     58 H26         3.2240   -1.1880    4.1510 h1        1 MOL      0.148139
     59 H27         3.8150   -2.6390    3.1690 h1        1 MOL      0.148139
     60 N6          0.9110   -3.2650    3.0670 n         1 MOL     -0.538236
     61 C19         0.0410   -4.3210    3.4810 c3        1 MOL     -0.052778
     62 C20        -0.3530   -5.2650    2.3890 c         1 MOL      0.480963
     63 O10        -1.4390   -5.0850    1.9030 o         1 MOL     -0.384369
     64 C21        -1.2170   -3.7200    4.1570 c3        1 MOL     -0.119984
     65 C22        -2.1070   -4.7940    4.8200 c         1 MOL      0.675595
     66 O11        -3.3240   -4.5700    4.9710 o         1 MOL     -0.630332
     67 O12        -1.5290   -5.8420    5.2540 o         1 MOL     -0.630332
     68 H28         0.7640   -2.9360    2.1220 hn        1 MOL      0.281099
     69 H29         0.5300   -4.8850    4.2780 h1        1 MOL      0.068465
     70 H30        -1.7820   -3.1450    3.4190 hc        1 MOL      0.049150
     71 H31        -0.9920   -2.9070    4.8430 hc        1 MOL      0.049150
     72 N7          0.5810   -6.1450    1.8550 n         1 MOL     -0.440700
     73 C23         0.2880   -6.9500    0.6480 c3        1 MOL     -0.010789
     74 C24         0.3080   -6.0820   -0.6340 c         1 MOL      0.321670
     75 O13        -0.3910   -6.3220   -1.6170 o         1 MOL     -0.479574
     76 H32         1.4850   -6.1920    2.2910 hn        1 MOL      0.296601
     77 H33        -0.6300   -7.5100    0.7500 h1        1 MOL      0.102588
     78 H34         1.0280   -7.7570    0.6450 h1        1 MOL      0.102588
     79 N8          1.1120   -5.0270   -0.6790 n         1 MOL     -0.166990
     80 C25         1.2570   -3.9240   -1.6120 c3        1 MOL     -0.072886
     81 C26         0.7390   -2.5900   -1.0420 c         1 MOL      0.487025
     82 O14         0.6050   -2.4040    0.1720 o         1 MOL     -0.356267
     83 C27         2.6260   -3.8020   -2.3440 c3        1 MOL      0.160374
     84 C28         3.7150   -3.4100   -1.2990 c3        1 MOL     -0.165137
     85 O15         2.9900   -5.0350   -2.9760 oh        1 MOL     -0.595230
     86 H35         1.7110   -4.9180    0.1330 hn        1 MOL      0.168850
     87 H36         0.5560   -4.2650   -2.3840 h1        1 MOL      0.095178
     88 H37         2.6610   -3.1040   -3.1850 h1        1 MOL      0.041916
     89 H38         2.2730   -5.2440   -3.5860 ho        1 MOL      0.396993
     90 H39         4.6730   -3.3690   -1.8150 hc        1 MOL      0.044255
     91 H40         3.5140   -2.4050   -0.9310 hc        1 MOL      0.044255
     92 H41         3.6980   -4.0340   -0.4090 hc        1 MOL      0.044255
     93 N9          0.4590   -1.5990   -1.9370 n         1 MOL     -0.388398
     94 C29         0.1660   -0.1860   -1.5810 c3        1 MOL     -0.463352
     95 C30        -1.2940   -0.1690   -0.9490 c         1 MOL      0.636207
     96 O16        -1.5700    0.6440   -0.0830 o         1 MOL     -0.546951
     97 C31         0.2930    0.8010   -2.7810 c3        1 MOL      0.517556
     98 C32         1.6470    0.6400   -3.4950 c3        1 MOL     -0.201524
     99 C33        -0.0100    2.2780   -2.3760 c3        1 MOL     -0.430302
    100 C34         1.7610    1.5160   -4.6930 c3        1 MOL     -0.048498
    101 H42         0.3690   -1.7520   -2.9360 hn        1 MOL      0.265281
    102 H43         0.7620    0.1720   -0.7380 h1        1 MOL      0.176662
    103 H44        -0.5260    0.6040   -3.4850 hc        1 MOL     -0.051360
    104 H45         1.8430   -0.3570   -3.8910 hc        1 MOL      0.051879
    105 H46         2.4400    1.0040   -2.8500 hc        1 MOL      0.051879
    106 H47        -1.0410    2.2600   -2.0230 hc        1 MOL      0.113119
    107 H48         0.7110    2.4680   -1.5850 hc        1 MOL      0.113119
    108 H49         0.1500    2.9710   -3.2020 hc        1 MOL      0.113119
    109 H50         1.7370    2.5690   -4.4080 hc        1 MOL      0.008949
    110 H51         2.6460    1.2790   -5.2800 hc        1 MOL      0.008949
    111 H52         0.9660    1.3820   -5.4360 hc        1 MOL      0.008949
    112 N10        -2.1360   -1.0970   -1.3370 n         1 MOL     -0.459971
    113 C35        -3.3740   -1.4560   -0.5930 c3        1 MOL     -0.087853
    114 C36        -4.5230   -1.8500   -1.5280 c         1 MOL      0.606932
    115 O17        -4.3010   -2.4540   -2.5940 o         1 MOL     -0.562215
    116 C37        -2.9730   -2.6330    0.3110 c3        1 MOL      0.325489
    117 C38        -4.1380   -3.1210    1.1760 c3        1 MOL     -0.296382
    118 O18        -2.2890   -3.6530   -0.3510 oh        1 MOL     -0.571441
    119 H53        -1.8800   -1.7910   -2.0230 hn        1 MOL      0.302134
    120 H54        -3.7110   -0.6690    0.0730 h1        1 MOL      0.090162
    121 H55        -2.3490   -2.2890    1.1370 h1        1 MOL      0.030485
    122 H56        -2.0520   -4.2670    0.3490 ho        1 MOL      0.359099
    123 H57        -4.7610   -2.2500    1.4220 hc        1 MOL      0.073170
    124 H58        -4.7430   -3.8520    0.6490 hc        1 MOL      0.073170
    125 H59        -3.7110   -3.5590    2.0790 hc        1 MOL      0.073170
    126 N11        -5.7480   -1.4810   -1.2860 n         1 MOL     -0.459667
    127 C39        -6.9330   -1.7190   -2.1620 c3        1 MOL     -0.088867
    128 C40        -7.9570   -0.5880   -2.3140 c         1 MOL      0.685087
    129 O19        -8.3680   -0.3050   -3.3960 o         1 MOL     -0.550640
    130 C41        -7.5410   -3.1080   -1.9420 c3        1 MOL      0.389854
    131 C42        -8.6610   -3.4180   -2.9280 c3        1 MOL     -0.387203
    132 O20        -8.1180   -3.1050   -0.6940 oh        1 MOL     -0.639748
    133 H60        -5.8580   -0.9410   -0.4330 hn        1 MOL      0.290582
    134 H61        -6.5960   -1.7850   -3.1980 h1        1 MOL      0.088084
    135 H62        -6.8620   -3.9510   -1.9750 h1        1 MOL      0.069651
    136 H63        -9.0510   -3.2730   -0.8280 ho        1 MOL      0.387236
    137 H64        -8.9740   -4.4300   -2.6920 hc        1 MOL      0.093632
    138 H65        -9.4920   -2.7390   -2.7060 hc        1 MOL      0.093632
    139 H66        -8.3060   -3.2950   -3.9550 hc        1 MOL      0.093632
    140 N12        -8.3580    0.0300   -1.1990 n         1 MOL     -0.561356
    141 C43        -9.3920    1.0780   -1.0630 c3        1 MOL      0.035247
    142 C44        -8.9200    2.0000    0.1380 c         1 MOL      0.544009
    143 O21        -8.5410    1.4710    1.1890 o         1 MOL     -0.510864
    144 C45       -10.7300    0.4340   -0.8420 c3        1 MOL      0.005780
    145 C46       -11.9560    1.3160   -0.4220 c3        1 MOL     -0.107195
    146 C47       -13.2310    0.5760   -0.6230 c3        1 MOL      0.012878
    147 C48       -14.3910    1.3050    0.0900 c3        1 MOL      0.135466
    148 N13       -15.7160    0.6020   -0.0550 n4        1 MOL     -0.291090
    149 H67        -7.8730   -0.2040   -0.3460 hn        1 MOL      0.298483
    150 H68        -9.4620    1.6890   -1.9620 h1        1 MOL      0.082369
    151 H69       -10.6870   -0.4000   -0.1450 hc        1 MOL      0.023581
    152 H70       -10.9420   -0.1040   -1.7750 hc        1 MOL      0.023581
    153 H71       -11.9830    2.1750   -1.1040 hc        1 MOL      0.066639
    154 H72       -11.7480    1.6030    0.6040 hc        1 MOL      0.066639
    155 H73       -13.2320   -0.4050   -0.1470 hc        1 MOL      0.017172
    156 H74       -13.3930    0.4760   -1.6910 hc        1 MOL      0.017172
    157 H75       -14.4700    2.3560   -0.2010 hx        1 MOL      0.050007
    158 H76       -14.1640    1.3020    1.1580 hx        1 MOL      0.050007
    159 H77       -16.4360    1.1200    0.4170 hn        1 MOL      0.264287
    160 H78       -16.0540    0.3630   -0.9820 hn        1 MOL      0.264287
    161 H79       -15.6930   -0.1790    0.5870 hn        1 MOL      0.264287
    162 N14        -8.8860    3.2940   -0.0720 n         1 MOL     -0.575369
    163 C49        -8.6350    4.2580    0.9850 c3        1 MOL      0.318517
    164 C50        -7.1990    4.3590    1.6000 c         1 MOL      0.428507
    165 O22        -7.0600    4.2590    2.7940 o         1 MOL     -0.533205
    166 C51        -9.0850    5.6930    0.5660 c3        1 MOL     -0.191390
    167 C52       -10.6560    5.6750    0.4490 c3        1 MOL     -0.270932
    168 C53       -11.1910    7.0640    0.6010 c         1 MOL      0.818634
    169 O23       -12.2190    7.3070    1.2770 o         1 MOL     -0.688502
    170 O24       -10.7610    7.9280   -0.1770 o         1 MOL     -0.688502
    171 H80        -9.2990    3.6180   -0.9370 hn        1 MOL      0.303421
    172 H81        -9.2470    3.8410    1.7910 h1        1 MOL      0.036499
    173 H82        -8.7070    5.9110   -0.4230 hc        1 MOL      0.096295
    174 H83        -8.8970    6.4660    1.3110 hc        1 MOL      0.096295
    175 H84       -11.0120    5.1040    1.3100 hc        1 MOL      0.025094
    176 H85       -11.0070    5.2590   -0.4880 hc        1 MOL      0.025094
    177 N15        -6.1380    4.4550    0.8270 n         1 MOL     -0.384923
    178 C54        -5.9870    5.1140   -0.4850 c3        1 MOL     -0.002894
    179 H86        -6.7640    5.8700   -0.6030 h1        1 MOL      0.041237
    180 H87        -5.0070    5.5880   -0.5430 h1        1 MOL      0.041237
    181 H88        -6.0790    4.3720   -1.2770 h1        1 MOL      0.041237
    182 H89        -5.2380    4.3090    1.2810 hn        1 MOL      0.295915
    183 Ca1         6.8430    4.5420    0.7290 Ca        1 MOL      1.675974
    184 O25         5.8020    3.5730   -1.7150 oh        1 MOL     -0.815530
    185 H90         5.3130    2.7780   -1.9220 ho        1 MOL      0.413030
    186 H91         6.4170    3.6780   -2.4470 ho        1 MOL      0.413030
    187 O26         4.1690    5.3180    0.5070 oh        1 MOL     -0.815530
    188 H92         3.9190    6.0440   -0.0550 ho        1 MOL      0.413030
    189 H93         3.8260    4.5440    0.0700 ho        1 MOL      0.413030
@<TRIPOS>BOND
     1    1    2 1   
     2    1    4 1   
     3    1    5 1   
     4    1    6 1   
     5    2    3 2   
     6    2    7 1   
     7    7    8 1   
     8    7   15 1   
     9    8    9 1   
    10    8   11 1   
    11    8   16 1   
    12    9   10 2   
    13    9   19 1   
    14   11   12 1   
    15   11   17 1   
    16   11   18 1   
    17   12   13 1   
    18   12   14 1   
    19   19   20 1   
    20   19   28 1   
    21   20   21 1   
    22   20   23 1   
    23   20   29 1   
    24   21   22 2   
    25   21   41 1   
    26   23   24 1   
    27   23   30 1   
    28   23   31 1   
    29   24   25 1   
    30   24   32 1   
    31   24   33 1   
    32   25   26 1   
    33   25   34 1   
    34   25   35 1   
    35   26   27 1   
    36   26   36 1   
    37   26   37 1   
    38   27   38 1   
    39   27   39 1   
    40   27   40 1   
    41   41   42 1   
    42   41   49 1   
    43   42   43 1   
    44   42   45 1   
    45   42   50 1   
    46   43   44 2   
    47   43   53 1   
    48   45   46 1   
    49   45   51 1   
    50   45   52 1   
    51   46   47 1   
    52   46   48 1   
    53   53   54 1   
    54   53   57 1   
    55   54   55 1   
    56   54   58 1   
    57   54   59 1   
    58   55   56 2   
    59   55   60 1   
    60   60   61 1   
    61   60   68 1   
    62   61   62 1   
    63   61   64 1   
    64   61   69 1   
    65   62   63 2   
    66   62   72 1   
    67   64   65 1   
    68   64   70 1   
    69   64   71 1   
    70   65   66 1   
    71   65   67 1   
    72   72   73 1   
    73   72   76 1   
    74   73   74 1   
    75   73   77 1   
    76   73   78 1   
    77   74   75 2   
    78   74   79 1   
    79   79   80 1   
    80   79   86 1   
    81   80   81 1   
    82   80   83 1   
    83   80   87 1   
    84   81   82 2   
    85   81   93 1   
    86   83   84 1   
    87   83   85 1   
    88   83   88 1   
    89   84   90 1   
    90   84   91 1   
    91   84   92 1   
    92   85   89 1   
    93   93   94 1   
    94   93  101 1   
    95   94   95 1   
    96   94   97 1   
    97   94  102 1   
    98   95   96 2   
    99   95  112 1   
   100   97   98 1   
   101   97   99 1   
   102   97  103 1   
   103   98  100 1   
   104   98  104 1   
   105   98  105 1   
   106   99  106 1   
   107   99  107 1   
   108   99  108 1   
   109  100  109 1   
   110  100  110 1   
   111  100  111 1   
   112  112  113 1   
   113  112  119 1   
   114  113  114 1   
   115  113  116 1   
   116  113  120 1   
   117  114  115 2   
   118  114  126 1   
   119  116  117 1   
   120  116  118 1   
   121  116  121 1   
   122  117  123 1   
   123  117  124 1   
   124  117  125 1   
   125  118  122 1   
   126  126  127 1   
   127  126  133 1   
   128  127  128 1   
   129  127  130 1   
   130  127  134 1   
   131  128  129 2   
   132  128  140 1   
   133  130  131 1   
   134  130  132 1   
   135  130  135 1   
   136  131  137 1   
   137  131  138 1   
   138  131  139 1   
   139  132  136 1   
   140  140  141 1   
   141  140  149 1   
   142  141  142 1   
   143  141  144 1   
   144  141  150 1   
   145  142  143 2   
   146  142  162 1   
   147  144  145 1   
   148  144  151 1   
   149  144  152 1   
   150  145  146 1   
   151  145  153 1   
   152  145  154 1   
   153  146  147 1   
   154  146  155 1   
   155  146  156 1   
   156  147  148 1   
   157  147  157 1   
   158  147  158 1   
   159  148  159 1   
   160  148  160 1   
   161  148  161 1   
   162  162  163 1   
   163  162  171 1   
   164  163  164 1   
   165  163  166 1   
   166  163  172 1   
   167  164  165 2   
   168  164  177 1   
   169  166  167 1   
   170  166  173 1   
   171  166  174 1   
   172  167  168 1   
   173  167  175 1   
   174  167  176 1   
   175  168  169 1   
   176  168  170 1   
   177  177  178 1   
   178  177  182 1   
   179  178  179 1   
   180  178  180 1   
   181  178  181 1   
   182  184  185 1   
   183  184  186 1   
   184  187  188 1   
   185  187  189 1   
@<TRIPOS>SUBSTRUCTURE
     1 MOL         1 TEMP              0 ****  ****    0 ROOT
