@<TRIPOS>MOLECULE
MOL
  181   177     1     0     0
SMALL
resp


@<TRIPOS>ATOM
      1 C1          2.6080   -0.6780    4.8720 c3        1 MOL     -0.321254
      2 C2          3.7950   -0.2400    4.0240 c         1 MOL      0.574389
      3 O1          3.7200    0.8150    3.3180 o         1 MOL     -0.534833
      4 H1          2.6450   -0.1720    5.8360 hc        1 MOL      0.086771
      5 H2          1.6800   -0.4180    4.3620 hc        1 MOL      0.086771
      6 H3          2.6490   -1.7560    5.0270 hc        1 MOL      0.086771
      7 N1          4.9130   -1.0220    4.0460 n         1 MOL     -0.469974
      8 C3          5.9220   -1.0700    2.9710 c3        1 MOL      0.139222
      9 C4          5.8470   -2.3480    2.0770 c         1 MOL      0.533512
     10 O2          6.5860   -2.3950    1.1320 o         1 MOL     -0.540345
     11 C5          7.3610   -0.8730    3.4090 c3        1 MOL     -0.219528
     12 C6          7.6250    0.1240    4.5140 c         1 MOL      0.687731
     13 O3          7.9110   -0.3300    5.6510 o         1 MOL     -0.719149
     14 O4          7.6810    1.4190    4.2890 o         1 MOL     -0.719149
     15 H4          4.9740   -1.7090    4.7830 hn        1 MOL      0.288725
     16 H5          5.7320   -0.2390    2.2970 h1        1 MOL      0.063784
     17 H6          7.9410   -0.5610    2.5400 hc        1 MOL      0.043740
     18 H7          7.6810   -1.8650    3.7260 hc        1 MOL      0.043740
     19 N2          4.9520   -3.2920    2.4140 n         1 MOL     -0.521107
     20 C7          4.9360   -4.6480    1.8830 c3        1 MOL      0.379186
     21 C8          4.9060   -4.6670    0.3590 c         1 MOL      0.416041
     22 O5          5.7050   -5.3990   -0.2190 o         1 MOL     -0.520271
     23 C9          6.0760   -5.5400    2.4270 c3        1 MOL     -0.612748
     24 H8          4.4390   -3.0950    3.2520 hn        1 MOL      0.266881
     25 H9          3.9740   -5.0530    2.2150 h1        1 MOL      0.033174
     26 H10         7.0580   -5.1590    2.1720 hc        1 MOL      0.157567
     27 H11         5.9970   -5.4790    3.5170 hc        1 MOL      0.157567
     28 H12         6.0150   -6.4580    1.8410 hc        1 MOL      0.157567
     29 N3          4.0450   -3.8950   -0.2930 n         1 MOL     -0.301280
     30 C10         4.0260   -3.6160   -1.7640 c3        1 MOL      0.053506
     31 C11         5.1670   -2.8770   -2.3410 c         1 MOL      0.302839
     32 O6          5.3970   -3.0240   -3.5630 o         1 MOL     -0.527924
     33 C12         3.6540   -4.9200   -2.5870 c3        1 MOL      0.122675
     34 C13         2.2290   -5.4540   -2.3220 c         1 MOL      0.595326
     35 O7          1.9710   -6.6390   -2.6420 o         1 MOL     -0.724385
     36 O8          1.3630   -4.8240   -1.6390 o         1 MOL     -0.724385
     37 H13         3.4030   -3.4510    0.3540 hn        1 MOL      0.186539
     38 H14         3.1750   -2.9690   -1.9590 h1        1 MOL      0.079163
     39 H15         4.3920   -5.7030   -2.4150 hc        1 MOL     -0.026701
     40 H16         3.6820   -4.7200   -3.6560 hc        1 MOL     -0.026701
     41 N4          5.9650   -2.1460   -1.6460 n         1 MOL      0.028100
     42 C14         7.1340   -1.3150   -2.0550 c3        1 MOL     -0.273186
     43 C15         6.8300   -0.0150   -2.7230 c         1 MOL      0.675726
     44 O9          7.4080    0.5520   -3.6290 o         1 MOL     -0.563071
     45 H17         5.6600   -2.0910   -0.6840 hn        1 MOL      0.105765
     46 H18         7.6670   -1.8660   -2.8350 h1        1 MOL      0.114661
     47 H19         7.6940   -1.0480   -1.1610 h1        1 MOL      0.114661
     48 N5          5.7370    0.5870   -2.1480 n         1 MOL     -0.482094
     49 C16         5.0210    1.7520   -2.7180 c3        1 MOL      0.072785
     50 C17         4.6180    2.8040   -1.6980 c         1 MOL      0.531622
     51 O10         4.0220    2.4220   -0.6980 o         1 MOL     -0.490546
     52 C18         3.8830    1.2750   -3.6580 c3        1 MOL     -0.328111
     53 C19         2.8560    0.3030   -3.1610 c         1 MOL      0.806282
     54 N6          2.1890    0.6590   -2.0780 n         1 MOL     -0.863292
     55 O11         2.5310   -0.7170   -3.7150 o         1 MOL     -0.633578
     56 H20         5.2390    0.1090   -1.4120 hn        1 MOL      0.273489
     57 H21         5.7960    2.2450   -3.3050 h1        1 MOL      0.056153
     58 H22         4.3930    0.8200   -4.5130 hc        1 MOL      0.094626
     59 H23         3.4220    2.1960   -4.0090 hc        1 MOL      0.094626
     60 H24         2.3280    1.5320   -1.5930 hn        1 MOL      0.405667
     61 H25         1.4810    0.0100   -1.7510 hn        1 MOL      0.405667
     62 N7          4.8680    4.0860   -1.9630 n         1 MOL     -0.491438
     63 C20         4.4190    5.1850   -1.0810 c3        1 MOL      0.002809
     64 C21         2.9910    5.6910   -1.3900 c         1 MOL      0.551218
     65 O12         2.2810    5.0950   -2.2070 o         1 MOL     -0.472046
     66 H26         5.2540    4.2860   -2.8780 hn        1 MOL      0.312498
     67 H27         5.1140    6.0100   -1.2060 h1        1 MOL      0.080499
     68 H28         4.3820    5.0000   -0.0050 h1        1 MOL      0.080499
     69 N8          2.5430    6.8170   -0.8180 n         1 MOL     -0.521345
     70 C22         1.3000    7.6400   -1.0990 c3        1 MOL     -0.036114
     71 C23         0.0440    6.9490   -0.4810 c         1 MOL      0.522617
     72 O13        -0.8380    7.6120   -0.0310 o         1 MOL     -0.568163
     73 C24         1.3960    9.0960   -0.6800 c3        1 MOL      0.463663
     74 C25         1.7610    9.5200    0.7130 c3        1 MOL     -0.441883
     75 O14         2.4130    9.6670   -1.5270 oh        1 MOL     -0.648222
     76 H29         3.3170    7.3260   -0.4150 hn        1 MOL      0.236148
     77 H30         1.1620    7.6570   -2.1840 h1        1 MOL      0.099662
     78 H31         0.4660    9.4970   -1.0780 h1        1 MOL      0.036377
     79 H32         3.2350    9.3050   -1.1950 ho        1 MOL      0.371952
     80 H33         2.6020    8.8910    0.9940 hc        1 MOL      0.117459
     81 H34         1.9930   10.5830    0.7690 hc        1 MOL      0.117459
     82 H35         0.9530    9.2290    1.3920 hc        1 MOL      0.117459
     83 N9         -0.0300    5.6130   -0.5780 n         1 MOL     -0.318693
     84 C26        -0.9940    4.7610    0.0990 c3        1 MOL      0.012984
     85 C27        -1.1950    3.4450   -0.6060 c         1 MOL      0.518982
     86 O15        -0.4260    3.1380   -1.5180 o         1 MOL     -0.480910
     87 C28        -0.5020    4.5070    1.5480 c3        1 MOL      0.123926
     88 C29         0.9310    3.9460    1.6780 c3        1 MOL     -0.134970
     89 C30        -0.6310    5.8440    2.2580 c3        1 MOL     -0.159598
     90 C31         1.2680    3.6840    3.1560 c3        1 MOL     -0.291218
     91 H36         0.7860    5.1690   -0.9610 hn        1 MOL      0.135724
     92 H37        -1.9500    5.2760    0.0230 h1        1 MOL      0.076765
     93 H38        -1.1800    3.8130    2.0440 hc        1 MOL      0.028064
     94 H39         1.6350    4.7160    1.3830 hc        1 MOL      0.114403
     95 H40         1.0550    3.1000    0.9920 hc        1 MOL      0.114403
     96 H41        -0.5580    5.5380    3.3060 hc        1 MOL      0.025621
     97 H42         0.1820    6.5630    2.1930 hc        1 MOL      0.025621
     98 H43        -1.6710    6.1810    2.1830 hc        1 MOL      0.025621
     99 H44         0.4390    3.2680    3.7240 hc        1 MOL      0.093446
    100 H45         2.1240    3.0190    3.1780 hc        1 MOL      0.093446
    101 H46         1.5910    4.6420    3.5670 hc        1 MOL      0.093446
    102 N10        -2.1350    2.6210   -0.2060 n         1 MOL     -0.622236
    103 C32        -2.2210    1.2650   -0.7480 c3        1 MOL      0.333889
    104 C33        -3.6090    0.5960   -0.6350 c         1 MOL      0.317602
    105 O16        -3.7170   -0.5790   -0.2190 o         1 MOL     -0.383482
    106 C34        -1.1010    0.3730   -0.1500 c3        1 MOL     -0.289344
    107 C35        -0.7940   -0.7950   -1.0980 c         1 MOL      0.675491
    108 O17        -1.4910   -1.0410   -2.1130 o         1 MOL     -0.730550
    109 O18         0.1000   -1.6580   -0.9240 o         1 MOL     -0.730550
    110 H47        -2.6950    2.8360    0.6130 hn        1 MOL      0.288562
    111 H48        -2.0740    1.3060   -1.8320 h1        1 MOL      0.037985
    112 H49        -1.3400    0.1430    0.8930 hc        1 MOL      0.097108
    113 H50        -0.1460    0.9090   -0.1430 hc        1 MOL      0.097108
    114 N11        -4.6970    1.3150   -0.7830 n         1 MOL     -0.327484
    115 C36        -6.0930    0.7650   -0.8040 c3        1 MOL      0.082192
    116 C37        -6.6640    0.2640    0.5240 c         1 MOL      0.291404
    117 O19        -6.4870    0.9520    1.5220 o         1 MOL     -0.472940
    118 C38        -7.0200    1.9470   -1.2250 c3        1 MOL     -0.081233
    119 C39        -8.5100    1.5750   -1.3750 ca        1 MOL      0.106988
    120 C40        -9.0860    1.2100   -2.6010 ca        1 MOL     -0.181512
    121 C41        -9.3690    1.5980   -0.2630 ca        1 MOL     -0.181512
    122 C42       -10.4380    0.8260   -2.6500 ca        1 MOL     -0.104874
    123 C43       -10.7430    1.2700   -0.3270 ca        1 MOL     -0.104874
    124 C44       -11.3000    1.0050   -1.5800 ca        1 MOL     -0.117962
    125 H51        -4.5970    2.2990   -1.0120 hn        1 MOL      0.241462
    126 H52        -6.1900    0.0650   -1.6410 h1        1 MOL      0.058953
    127 H53        -6.7680    2.4060   -2.1700 hc        1 MOL      0.051155
    128 H54        -6.9820    2.7670   -0.5090 hc        1 MOL      0.051155
    129 H55        -8.4680    1.2260   -3.4900 ha        1 MOL      0.117877
    130 H56        -8.9780    1.8350    0.7180 ha        1 MOL      0.117877
    131 H57       -10.9130    0.4940   -3.5620 ha        1 MOL      0.103987
    132 H58       -11.3500    1.1010    0.5540 ha        1 MOL      0.103987
    133 H59       -12.3410    0.7390   -1.7160 ha        1 MOL      0.103274
    134 N12        -7.1180   -0.9950    0.4870 n         1 MOL      0.018962
    135 C45        -7.5310   -1.7680    1.6280 c3        1 MOL      0.001153
    136 C46        -6.4690   -1.9890    2.6410 c         1 MOL      0.245940
    137 O20        -6.8360   -2.3700    3.7320 o         1 MOL     -0.494705
    138 C47        -7.9970   -3.1710    1.0600 c3        1 MOL     -0.022609
    139 C48        -8.3880   -2.7820   -0.3270 c3        1 MOL     -0.094317
    140 C49        -7.4490   -1.7110   -0.7440 c3        1 MOL      0.109654
    141 H60        -8.3920   -1.2280    2.0160 h1        1 MOL      0.085427
    142 H61        -7.2460   -3.9500    0.9120 hc        1 MOL      0.044974
    143 H62        -8.9140   -3.4930    1.5510 hc        1 MOL      0.044974
    144 H63        -8.2130   -3.6400   -0.9720 hc        1 MOL      0.033291
    145 H64        -9.4380   -2.5130   -0.3180 hc        1 MOL      0.033291
    146 H65        -6.5470   -2.1250   -1.1870 h1        1 MOL     -0.019347
    147 H66        -7.9600   -1.1210   -1.5150 h1        1 MOL     -0.019347
    148 N13        -5.2030   -1.9540    2.2060 n         1 MOL     -0.096010
    149 C50        -4.1680   -2.1070    3.2530 c3        1 MOL     -0.031874
    150 C51        -3.8580   -0.8080    4.0040 c         1 MOL      0.376439
    151 O21        -3.0900   -0.8550    4.9830 o         1 MOL     -0.537613
    152 C52        -2.8270   -2.6500    2.6910 c3        1 MOL      0.130990
    153 C53        -2.9730   -3.9520    1.9510 c3        1 MOL     -0.213632
    154 C54        -1.5870   -4.5220    1.4530 c         1 MOL      0.703542
    155 O22        -1.3660   -4.5370    0.2340 o         1 MOL     -0.690921
    156 O23        -0.7730   -5.0260    2.2260 o         1 MOL     -0.690921
    157 H67        -4.9460   -1.4940    1.3480 hn        1 MOL      0.034281
    158 H68        -4.5620   -2.7180    4.0630 h1        1 MOL      0.127225
    159 H69        -2.2670   -2.7890    3.6210 hc        1 MOL      0.007594
    160 H70        -2.3040   -1.9380    2.0590 hc        1 MOL      0.007594
    161 H71        -3.4800   -3.7710    1.0010 hc        1 MOL     -0.011925
    162 H72        -3.4580   -4.6720    2.5970 hc        1 MOL     -0.011925
    163 N14        -4.3760    0.3440    3.5940 n         1 MOL     -0.131682
    164 C55        -4.2440    1.6570    4.3210 c3        1 MOL     -0.197773
    165 H73        -3.4190    1.5980    5.0310 h1        1 MOL      0.088303
    166 H74        -4.0480    2.4520    3.6020 h1        1 MOL      0.088303
    167 H75        -5.1690    1.8710    4.8560 h1        1 MOL      0.088303
    168 H76        -4.9700    0.2590    2.7790 hn        1 MOL      0.176868
    169 Ca1        -0.8700   -3.7130   -2.2390 Ca        1 MOL      1.724946
    170 O24        -3.4260   -3.0460   -1.5210 oh        1 MOL     -0.841360
    171 H77        -3.4930   -2.2100   -1.0660 ho        1 MOL      0.412613
    172 H78        -4.0380   -3.6200   -1.0600 ho        1 MOL      0.412613
    173 O25        -2.2050   -3.6560   -4.5920 oh        1 MOL     -0.841360
    174 H79        -3.1210   -3.7790   -4.8430 ho        1 MOL      0.412613
    175 H80        -1.7260   -3.7980   -5.4040 ho        1 MOL      0.412613
    176 O26        -2.4630   -5.9250   -2.3040 oh        1 MOL     -0.841360
    177 H81        -2.6760   -6.5010   -1.5750 ho        1 MOL      0.412613
    178 H82        -3.0780   -6.1590   -2.9860 ho        1 MOL      0.412613
    179 O27         0.8530   -2.7880   -3.9860 oh        1 MOL     -0.841360
    180 H83         1.1310   -2.9350   -4.8930 ho        1 MOL      0.412613
    181 H84         1.3160   -2.0080   -3.7160 ho        1 MOL      0.412613
@<TRIPOS>BOND
     1    1    2 1   
     2    1    4 1   
     3    1    5 1   
     4    1    6 1   
     5    2    3 2   
     6    2    7 1   
     7    7    8 1   
     8    7   15 1   
     9    8    9 1   
    10    8   11 1   
    11    8   16 1   
    12    9   10 2   
    13    9   19 1   
    14   11   12 1   
    15   11   17 1   
    16   11   18 1   
    17   12   13 1   
    18   12   14 1   
    19   19   20 1   
    20   19   24 1   
    21   20   21 1   
    22   20   23 1   
    23   20   25 1   
    24   21   22 2   
    25   21   29 1   
    26   23   26 1   
    27   23   27 1   
    28   23   28 1   
    29   29   30 1   
    30   29   37 1   
    31   30   31 1   
    32   30   33 1   
    33   30   38 1   
    34   31   32 2   
    35   31   41 1   
    36   33   34 1   
    37   33   39 1   
    38   33   40 1   
    39   34   35 1   
    40   34   36 1   
    41   41   42 1   
    42   41   45 1   
    43   42   43 1   
    44   42   46 1   
    45   42   47 1   
    46   43   44 2   
    47   43   48 1   
    48   48   49 1   
    49   48   56 1   
    50   49   50 1   
    51   49   52 1   
    52   49   57 1   
    53   50   51 2   
    54   50   62 1   
    55   52   53 1   
    56   52   58 1   
    57   52   59 1   
    58   53   54 1   
    59   53   55 2   
    60   54   60 1   
    61   54   61 1   
    62   62   63 1   
    63   62   66 1   
    64   63   64 1   
    65   63   67 1   
    66   63   68 1   
    67   64   65 2   
    68   64   69 1   
    69   69   70 1   
    70   69   76 1   
    71   70   71 1   
    72   70   73 1   
    73   70   77 1   
    74   71   72 2   
    75   71   83 1   
    76   73   74 1   
    77   73   75 1   
    78   73   78 1   
    79   74   80 1   
    80   74   81 1   
    81   74   82 1   
    82   75   79 1   
    83   83   84 1   
    84   83   91 1   
    85   84   85 1   
    86   84   87 1   
    87   84   92 1   
    88   85   86 2   
    89   85  102 1   
    90   87   88 1   
    91   87   89 1   
    92   87   93 1   
    93   88   90 1   
    94   88   94 1   
    95   88   95 1   
    96   89   96 1   
    97   89   97 1   
    98   89   98 1   
    99   90   99 1   
   100   90  100 1   
   101   90  101 1   
   102  102  103 1   
   103  102  110 1   
   104  103  104 1   
   105  103  106 1   
   106  103  111 1   
   107  104  105 2   
   108  104  114 1   
   109  106  107 1   
   110  106  112 1   
   111  106  113 1   
   112  107  108 1   
   113  107  109 1   
   114  114  115 1   
   115  114  125 1   
   116  115  116 1   
   117  115  118 1   
   118  115  126 1   
   119  116  117 2   
   120  116  134 1   
   121  118  119 1   
   122  118  127 1   
   123  118  128 1   
   124  119  120 ar  
   125  119  121 ar  
   126  120  122 ar  
   127  120  129 1   
   128  121  123 ar  
   129  121  130 1   
   130  122  124 ar  
   131  122  131 1   
   132  123  124 ar  
   133  123  132 1   
   134  124  133 1   
   135  134  135 1   
   136  134  140 1   
   137  135  136 1   
   138  135  138 1   
   139  135  141 1   
   140  136  137 2   
   141  136  148 1   
   142  138  139 1   
   143  138  142 1   
   144  138  143 1   
   145  139  140 1   
   146  139  144 1   
   147  139  145 1   
   148  140  146 1   
   149  140  147 1   
   150  148  149 1   
   151  148  157 1   
   152  149  150 1   
   153  149  152 1   
   154  149  158 1   
   155  150  151 2   
   156  150  163 1   
   157  152  153 1   
   158  152  159 1   
   159  152  160 1   
   160  153  154 1   
   161  153  161 1   
   162  153  162 1   
   163  154  155 1   
   164  154  156 1   
   165  163  164 1   
   166  163  168 1   
   167  164  165 1   
   168  164  166 1   
   169  164  167 1   
   170  170  171 1   
   171  170  172 1   
   172  173  174 1   
   173  173  175 1   
   174  176  177 1   
   175  176  178 1   
   176  179  180 1   
   177  179  181 1   
@<TRIPOS>SUBSTRUCTURE
     1 MOL         1 TEMP              0 ****  ****    0 ROOT
