@<TRIPOS>MOLECULE
MOL
  181   177     1     0     0
SMALL
resp


@<TRIPOS>ATOM
      1 C1         10.5990   -4.8290    3.2640 c3        1 MOL     -0.302334
      2 C2          9.4370   -4.0660    2.6350 c         1 MOL      0.643137
      3 O1          8.3900   -4.6440    2.3860 o         1 MOL     -0.569500
      4 H1         11.4240   -4.8850    2.5530 hc        1 MOL      0.074011
      5 H2         10.9300   -4.3110    4.1640 hc        1 MOL      0.074011
      6 H3         10.2750   -5.8380    3.5230 hc        1 MOL      0.074011
      7 N1          9.5580   -2.8220    2.2220 n         1 MOL     -0.522110
      8 C3         10.7520   -1.8340    2.2950 c3        1 MOL      0.151980
      9 C4         11.2460   -1.3420    0.8870 c         1 MOL      0.534473
     10 O2         10.7920   -1.9940    0.0010 o         1 MOL     -0.421210
     11 C5         10.3290   -0.6080    3.2320 c3        1 MOL     -0.009718
     12 C6          9.1690    0.2070    2.6320 c         1 MOL      0.504191
     13 O3          7.9850   -0.0320    3.0300 o         1 MOL     -0.676903
     14 O4          9.3800    1.0880    1.7830 o         1 MOL     -0.676903
     15 H4          8.6400   -2.5360    1.9150 hn        1 MOL      0.344262
     16 H5         11.5650   -2.3600    2.8070 h1        1 MOL      0.001856
     17 H6         11.1840    0.0510    3.3190 hc        1 MOL     -0.015529
     18 H7         10.1560   -1.0360    4.2170 hc        1 MOL     -0.015529
     19 N2         12.1030   -0.3360    0.7630 n         1 MOL     -0.650404
     20 C7         12.4530    0.3030   -0.5170 c3        1 MOL      0.479310
     21 C8         11.3330    0.4040   -1.5900 c         1 MOL      0.267930
     22 O5         11.5210    0.1020   -2.7810 o         1 MOL     -0.503919
     23 C9         13.7460   -0.4110   -0.9730 c3        1 MOL     -0.402663
     24 H8         12.4970    0.0620    1.6000 hn        1 MOL      0.325982
     25 H9         12.7340    1.3370   -0.3430 h1        1 MOL     -0.027231
     26 H10        14.2940   -0.7030   -0.0760 hc        1 MOL      0.095203
     27 H11        13.4160   -1.2410   -1.6000 hc        1 MOL      0.095203
     28 H12        14.3760    0.2460   -1.5670 hc        1 MOL      0.095203
     29 N3         10.1100    0.7360   -1.2150 n         1 MOL     -0.241793
     30 C10         8.9420    0.9440   -2.1080 c3        1 MOL      0.240105
     31 C11         8.0120    2.0710   -1.6010 c         1 MOL      0.336551
     32 O6          7.9770    2.4820   -0.4440 o         1 MOL     -0.577529
     33 C12         8.1050   -0.3660   -2.3570 c3        1 MOL     -0.171308
     34 C13         7.3990   -0.9330   -1.1240 c         1 MOL      0.707347
     35 O7          6.8080   -2.0630   -1.1980 o         1 MOL     -0.676617
     36 O8          7.4090   -0.2970   -0.0250 o         1 MOL     -0.676617
     37 H13         9.9190    0.7570   -0.2200 hn        1 MOL      0.137189
     38 H14         9.4070    1.2490   -3.0490 h1        1 MOL     -0.005065
     39 H15         8.7100   -1.1360   -2.8140 hc        1 MOL      0.036994
     40 H16         7.3040   -0.1370   -3.0700 hc        1 MOL      0.036994
     41 N4          7.1370    2.5200   -2.4310 n         1 MOL     -0.282478
     42 C14         5.9450    3.3840   -2.1770 c3        1 MOL     -0.225388
     43 C15         4.8350    2.6530   -1.4410 c         1 MOL      0.790899
     44 O9          4.9880    1.9170   -0.4350 o         1 MOL     -0.678584
     45 H17         7.2560    2.1720   -3.3620 hn        1 MOL      0.249188
     46 H18         5.5280    3.7570   -3.1100 h1        1 MOL      0.118071
     47 H19         6.1410    4.3440   -1.6990 h1        1 MOL      0.118071
     48 N5          3.6580    2.9660   -1.8700 n         1 MOL     -0.719402
     49 C16         2.4070    2.7890   -1.0440 c3        1 MOL      0.086796
     50 C17         1.5420    1.5910   -1.4390 c         1 MOL      0.479048
     51 O10         0.4180    1.4780   -0.9260 o         1 MOL     -0.440644
     52 C18         1.5500    4.0060   -0.9290 c3        1 MOL     -0.208589
     53 C19         2.2120    5.2720   -0.4680 c         1 MOL      0.755022
     54 N6          1.9910    6.3590   -1.1110 n         1 MOL     -0.802556
     55 O11         3.0840    5.2350    0.3290 o         1 MOL     -0.605080
     56 H20         3.5700    3.6540   -2.6070 hn        1 MOL      0.357731
     57 H21         2.6090    2.5570    0.0060 h1        1 MOL      0.142950
     58 H22         0.6690    3.8060   -0.3180 hc        1 MOL      0.075581
     59 H23         1.1820    4.1540   -1.9480 hc        1 MOL      0.075581
     60 H24         1.3590    6.3870   -1.9050 hn        1 MOL      0.360550
     61 H25         2.4110    7.2250   -0.8010 hn        1 MOL      0.360550
     62 N7          2.1460    0.6900   -2.2700 n         1 MOL     -0.300622
     63 C20         1.5680   -0.5890   -2.6650 c3        1 MOL     -0.404987
     64 C21         1.3220   -1.4770   -1.4320 c         1 MOL      0.709806
     65 O12         1.7520   -1.1250   -0.3280 o         1 MOL     -0.550725
     66 H26         3.0220    1.0280   -2.6350 hn        1 MOL      0.283047
     67 H27         2.2630   -1.1170   -3.3090 h1        1 MOL      0.189227
     68 H28         0.5390   -0.4200   -2.9890 h1        1 MOL      0.189227
     69 N8          0.6880   -2.6380   -1.5910 n         1 MOL     -0.513341
     70 C22         0.1590   -3.2040   -2.8530 c3        1 MOL     -0.061135
     71 C23        -1.2720   -2.8120   -3.1010 c         1 MOL      0.467995
     72 O13        -1.8280   -3.0960   -4.1670 o         1 MOL     -0.580467
     73 C24         0.3090   -4.7180   -2.8780 c3        1 MOL      0.473546
     74 C25         1.7000   -5.2260   -3.1860 c3        1 MOL     -0.349784
     75 O14        -0.1600   -5.1870   -1.6700 oh        1 MOL     -0.659332
     76 H29         0.6170   -3.2060   -0.7570 hn        1 MOL      0.276153
     77 H30         0.6740   -2.8850   -3.7590 h1        1 MOL      0.040247
     78 H31        -0.3050   -5.1080   -3.6900 h1        1 MOL      0.020996
     79 H32         0.5430   -5.2420   -1.0240 ho        1 MOL      0.406998
     80 H33         2.3590   -4.7950   -2.4310 hc        1 MOL      0.083145
     81 H34         1.7260   -6.3070   -3.2140 hc        1 MOL      0.083145
     82 H35         2.0540   -4.8790   -4.1620 hc        1 MOL      0.083145
     83 N9         -2.0120   -2.3680   -2.0710 n         1 MOL     -0.064770
     84 C26        -3.4140   -2.0040   -1.9270 c3        1 MOL     -0.003341
     85 C27        -3.6350   -0.5540   -1.5700 c         1 MOL      0.203096
     86 O15        -2.7060    0.2700   -1.2900 o         1 MOL     -0.479694
     87 C28        -4.1220   -3.0340   -0.9440 c3        1 MOL      0.255114
     88 C29        -3.2920   -3.2130    0.3550 c3        1 MOL     -0.162247
     89 C30        -4.3550   -4.3020   -1.6970 c3        1 MOL     -0.398922
     90 C31        -4.1850   -4.0750    1.4100 c3        1 MOL     -0.196908
     91 H36        -1.4860   -2.1960   -1.2250 hn        1 MOL      0.096274
     92 H37        -3.9270   -2.2340   -2.8530 h1        1 MOL      0.091582
     93 H38        -5.0690   -2.5690   -0.6730 hc        1 MOL      0.006095
     94 H39        -3.0810   -2.2400    0.8030 hc        1 MOL      0.069862
     95 H40        -2.3980   -3.7640    0.0580 hc        1 MOL      0.069862
     96 H41        -4.9310   -5.0000   -1.0870 hc        1 MOL      0.085708
     97 H42        -4.9330   -4.0400   -2.5850 hc        1 MOL      0.085708
     98 H43        -3.3820   -4.6620   -2.0140 hc        1 MOL      0.085708
     99 H44        -3.6550   -4.1060    2.3600 hc        1 MOL      0.047212
    100 H45        -5.1560   -3.5750    1.4620 hc        1 MOL      0.047212
    101 H46        -4.2230   -5.0990    1.0510 hc        1 MOL      0.047212
    102 N10        -4.8340   -0.0040   -1.7170 n         1 MOL      0.074602
    103 C32        -5.9960   -0.6010   -2.3720 c3        1 MOL     -0.025304
    104 C33        -7.2700    0.2400   -1.9530 c         1 MOL      0.447461
    105 O16        -7.1790    1.4050   -1.4460 o         1 MOL     -0.436873
    106 C34        -5.7810   -0.5610   -3.9310 c3        1 MOL     -0.166638
    107 C35        -5.1580    0.8150   -4.3760 c         1 MOL      0.671788
    108 O17        -5.9960    1.6030   -4.8650 o         1 MOL     -0.705739
    109 O18        -3.9460    1.0640   -4.2460 o         1 MOL     -0.705739
    110 H47        -4.9530    0.9720   -1.4820 hn        1 MOL      0.176796
    111 H48        -6.1080   -1.6360   -2.0690 h1        1 MOL      0.021214
    112 H49        -6.7240   -0.7760   -4.4280 hc        1 MOL      0.007909
    113 H50        -5.0340   -1.2770   -4.2870 hc        1 MOL      0.007909
    114 N11        -8.4370   -0.4140   -1.8880 n         1 MOL     -0.647052
    115 C36        -9.5790    0.0180   -1.0170 c3        1 MOL      0.494588
    116 C37       -10.2840   -1.2200   -0.3140 c         1 MOL      0.266137
    117 O19       -10.3600   -2.2490   -0.9690 o         1 MOL     -0.509474
    118 C38       -10.6660    0.8060   -1.8390 c3        1 MOL     -0.106093
    119 C39       -11.3770    1.8750   -1.0220 ca        1 MOL      0.044812
    120 C40       -12.8010    1.9070   -0.8010 ca        1 MOL     -0.181108
    121 C41       -10.5910    2.9840   -0.7460 ca        1 MOL     -0.181108
    122 C42       -13.3660    3.0390   -0.1000 ca        1 MOL     -0.068104
    123 C43       -11.1340    4.1070   -0.0840 ca        1 MOL     -0.068104
    124 C44       -12.5150    4.0820    0.3470 ca        1 MOL     -0.218694
    125 H51        -8.4470   -1.4010   -2.1290 hn        1 MOL      0.311826
    126 H52        -9.1240    0.6620   -0.2750 h1        1 MOL      0.070530
    127 H53       -11.3670    0.1340   -2.3250 hc        1 MOL      0.050667
    128 H54       -10.2370    1.2830   -2.7230 hc        1 MOL      0.050667
    129 H55       -13.4200    1.0640   -1.0520 ha        1 MOL      0.107997
    130 H56        -9.5950    2.9620   -1.1630 ha        1 MOL      0.107997
    131 H57       -14.4020    3.0840    0.2050 ha        1 MOL      0.106576
    132 H58       -10.5400    5.0000    0.0860 ha        1 MOL      0.106576
    133 H59       -12.8950    4.9790    0.8090 ha        1 MOL      0.125297
    134 N12       -10.6310   -1.0980    1.0110 n         1 MOL     -0.077762
    135 C45       -10.6380    0.0740    1.9580 c3        1 MOL     -0.336672
    136 C46        -9.2590    0.2940    2.6850 c         1 MOL      0.565257
    137 O20        -9.2580    1.0060    3.6410 o         1 MOL     -0.490039
    138 C47       -11.7150   -0.2790    2.9730 c3        1 MOL     -0.021827
    139 C48       -11.4890   -1.7750    3.1090 c3        1 MOL      0.125593
    140 C49       -11.3320   -2.2230    1.6900 c3        1 MOL     -0.184615
    141 H60       -10.9680    1.0150    1.5210 h1        1 MOL      0.201354
    142 H61       -11.6350    0.2790    3.9120 hc        1 MOL      0.020454
    143 H62       -12.6190   -0.0800    2.4020 hc        1 MOL      0.020454
    144 H63       -10.6680   -2.0460    3.7740 hc        1 MOL     -0.003939
    145 H64       -12.3800   -2.2980    3.4590 hc        1 MOL     -0.003939
    146 H65       -10.8820   -3.1990    1.5510 h1        1 MOL      0.091115
    147 H66       -12.3220   -2.3580    1.2650 h1        1 MOL      0.091115
    148 N13        -8.2490   -0.5340    2.3840 n         1 MOL     -0.435461
    149 C50        -6.9140   -0.5600    2.9810 c3        1 MOL      0.264834
    150 C51        -6.5060   -1.9620    3.5210 c         1 MOL      0.364512
    151 O21        -7.0440   -2.9880    3.0520 o         1 MOL     -0.578144
    152 C52        -5.8900   -0.1600    1.8500 c3        1 MOL     -0.207203
    153 C53        -5.9170    1.3140    1.5960 c3        1 MOL     -0.084458
    154 C54        -5.5710    2.2270    2.8010 c         1 MOL      0.673991
    155 O22        -4.5600    1.9020    3.4620 o         1 MOL     -0.713239
    156 O23        -6.3500    3.1640    3.1330 o         1 MOL     -0.713239
    157 H67        -8.3830   -1.2760    1.7030 hn        1 MOL      0.274135
    158 H68        -6.8520    0.1890    3.7710 h1        1 MOL      0.082672
    159 H69        -6.1850   -0.7430    0.9750 hc        1 MOL      0.053778
    160 H70        -4.8890   -0.5130    2.1010 hc        1 MOL      0.053778
    161 H71        -6.8450    1.6400    1.1220 hc        1 MOL      0.002052
    162 H72        -5.0560    1.5330    0.9590 hc        1 MOL      0.002052
    163 N14        -5.5580   -2.1530    4.4510 n         1 MOL     -0.296944
    164 C55        -4.9400   -1.1370    5.3050 c3        1 MOL     -0.026312
    165 H73        -5.4670   -1.0960    6.2580 h1        1 MOL      0.038404
    166 H74        -3.8950   -1.3950    5.4800 h1        1 MOL      0.038404
    167 H75        -4.9980   -0.1660    4.8150 h1        1 MOL      0.038404
    168 H76        -5.4600   -3.1130    4.7310 hn        1 MOL      0.250909
    169 Ca1         6.6660    1.6450    1.7020 Ca        1 MOL      1.829448
    170 O24         5.9350    1.9700    4.2610 oh        1 MOL     -0.854599
    171 H77         5.5930    2.8420    4.4700 ho        1 MOL      0.423341
    172 H78         5.8880    1.4860    5.0860 ho        1 MOL      0.423341
    173 O25         5.4060    3.9910    2.1020 oh        1 MOL     -0.854599
    174 H79         5.7850    4.8450    1.8670 ho        1 MOL      0.423341
    175 H80         4.5600    4.2100    2.4930 ho        1 MOL      0.423341
    176 O26         4.5880    0.0600    2.2890 oh        1 MOL     -0.854599
    177 H81         3.7280    0.4000    2.5460 ho        1 MOL      0.423341
    178 H82         4.4200   -0.8380    2.0190 ho        1 MOL      0.423341
    179 O27         8.4500    3.6990    2.2160 oh        1 MOL     -0.854599
    180 H83         9.1070    3.1550    2.6530 ho        1 MOL      0.423341
    181 H84         8.8780    4.0180    1.4240 ho        1 MOL      0.423341
@<TRIPOS>BOND
     1    1    2 1   
     2    1    4 1   
     3    1    5 1   
     4    1    6 1   
     5    2    3 2   
     6    2    7 1   
     7    7    8 1   
     8    7   15 1   
     9    8    9 1   
    10    8   11 1   
    11    8   16 1   
    12    9   10 2   
    13    9   19 1   
    14   11   12 1   
    15   11   17 1   
    16   11   18 1   
    17   12   13 1   
    18   12   14 1   
    19   19   20 1   
    20   19   24 1   
    21   20   21 1   
    22   20   23 1   
    23   20   25 1   
    24   21   22 2   
    25   21   29 1   
    26   23   26 1   
    27   23   27 1   
    28   23   28 1   
    29   29   30 1   
    30   29   37 1   
    31   30   31 1   
    32   30   33 1   
    33   30   38 1   
    34   31   32 2   
    35   31   41 1   
    36   33   34 1   
    37   33   39 1   
    38   33   40 1   
    39   34   35 1   
    40   34   36 1   
    41   41   42 1   
    42   41   45 1   
    43   42   43 1   
    44   42   46 1   
    45   42   47 1   
    46   43   44 2   
    47   43   48 1   
    48   48   49 1   
    49   48   56 1   
    50   49   50 1   
    51   49   52 1   
    52   49   57 1   
    53   50   51 2   
    54   50   62 1   
    55   52   53 1   
    56   52   58 1   
    57   52   59 1   
    58   53   54 1   
    59   53   55 2   
    60   54   60 1   
    61   54   61 1   
    62   62   63 1   
    63   62   66 1   
    64   63   64 1   
    65   63   67 1   
    66   63   68 1   
    67   64   65 2   
    68   64   69 1   
    69   69   70 1   
    70   69   76 1   
    71   70   71 1   
    72   70   73 1   
    73   70   77 1   
    74   71   72 2   
    75   71   83 1   
    76   73   74 1   
    77   73   75 1   
    78   73   78 1   
    79   74   80 1   
    80   74   81 1   
    81   74   82 1   
    82   75   79 1   
    83   83   84 1   
    84   83   91 1   
    85   84   85 1   
    86   84   87 1   
    87   84   92 1   
    88   85   86 2   
    89   85  102 1   
    90   87   88 1   
    91   87   89 1   
    92   87   93 1   
    93   88   90 1   
    94   88   94 1   
    95   88   95 1   
    96   89   96 1   
    97   89   97 1   
    98   89   98 1   
    99   90   99 1   
   100   90  100 1   
   101   90  101 1   
   102  102  103 1   
   103  102  110 1   
   104  103  104 1   
   105  103  106 1   
   106  103  111 1   
   107  104  105 2   
   108  104  114 1   
   109  106  107 1   
   110  106  112 1   
   111  106  113 1   
   112  107  108 1   
   113  107  109 1   
   114  114  115 1   
   115  114  125 1   
   116  115  116 1   
   117  115  118 1   
   118  115  126 1   
   119  116  117 2   
   120  116  134 1   
   121  118  119 1   
   122  118  127 1   
   123  118  128 1   
   124  119  120 ar  
   125  119  121 ar  
   126  120  122 ar  
   127  120  129 1   
   128  121  123 ar  
   129  121  130 1   
   130  122  124 ar  
   131  122  131 1   
   132  123  124 ar  
   133  123  132 1   
   134  124  133 1   
   135  134  135 1   
   136  134  140 1   
   137  135  136 1   
   138  135  138 1   
   139  135  141 1   
   140  136  137 2   
   141  136  148 1   
   142  138  139 1   
   143  138  142 1   
   144  138  143 1   
   145  139  140 1   
   146  139  144 1   
   147  139  145 1   
   148  140  146 1   
   149  140  147 1   
   150  148  149 1   
   151  148  157 1   
   152  149  150 1   
   153  149  152 1   
   154  149  158 1   
   155  150  151 2   
   156  150  163 1   
   157  152  153 1   
   158  152  159 1   
   159  152  160 1   
   160  153  154 1   
   161  153  161 1   
   162  153  162 1   
   163  154  155 1   
   164  154  156 1   
   165  163  164 1   
   166  163  168 1   
   167  164  165 1   
   168  164  166 1   
   169  164  167 1   
   170  170  171 1   
   171  170  172 1   
   172  173  174 1   
   173  173  175 1   
   174  176  177 1   
   175  176  178 1   
   176  179  180 1   
   177  179  181 1   
@<TRIPOS>SUBSTRUCTURE
     1 MOL         1 TEMP              0 ****  ****    0 ROOT
