@<TRIPOS>MOLECULE
MOL
  198   191     1     0     0
SMALL
resp


@<TRIPOS>ATOM
      1 C1         -2.9020    4.5950    2.0520 c3        1 MOL     -0.325837
      2 C2         -4.0790    3.6570    2.4930 c         1 MOL      0.675276
      3 O1         -3.9990    2.9450    3.5010 o         1 MOL     -0.623030
      4 H1         -2.1750    4.6690    2.8610 hc        1 MOL      0.087056
      5 H2         -2.4190    4.1810    1.1670 hc        1 MOL      0.087056
      6 H3         -3.2930    5.5860    1.8230 hc        1 MOL      0.087056
      7 N1         -5.1920    3.5970    1.8040 n         1 MOL     -0.364471
      8 C3         -6.3830    2.8720    2.2640 c3        1 MOL     -0.070230
      9 C4         -6.5590    1.7350    1.2770 c         1 MOL      0.539423
     10 O2         -6.4370    1.8600    0.0300 o         1 MOL     -0.563526
     11 C5         -7.6270    3.8360    2.3370 c3        1 MOL      0.238481
     12 C6         -7.8160    4.9630    1.3470 c         1 MOL      0.498433
     13 O3         -7.3840    4.8010    0.1510 o         1 MOL     -0.653208
     14 O4         -8.3560    5.9920    1.7870 o         1 MOL     -0.653208
     15 H4         -5.1940    3.9270    0.8450 hn        1 MOL      0.135907
     16 H5         -6.3620    2.3430    3.2220 h1        1 MOL      0.078049
     17 H6         -7.5300    4.2290    3.3520 hc        1 MOL     -0.027917
     18 H7         -8.4720    3.1570    2.3140 hc        1 MOL     -0.027917
     19 N2         -6.9440    0.5540    1.7740 n         1 MOL     -0.484471
     20 C7         -7.3200   -0.5890    0.9970 c3        1 MOL      0.340290
     21 C8         -8.6680   -0.2620    0.3020 c         1 MOL      0.254793
     22 O5         -9.6200    0.1860    0.8720 o         1 MOL     -0.493470
     23 C9         -7.5990   -1.8640    1.8540 c3        1 MOL     -0.119128
     24 C10        -6.4300   -2.2370    2.8050 c3        1 MOL      0.064055
     25 C11        -6.3570   -3.6050    3.4560 c3        1 MOL     -0.180758
     26 C12        -4.8880   -4.0890    3.5840 c3        1 MOL      0.280574
     27 N3         -4.8220   -5.0120    4.7670 n4        1 MOL     -0.410332
     28 H8         -7.0170    0.4930    2.7810 hn        1 MOL      0.242352
     29 H9         -6.5410   -0.7980    0.2550 h1        1 MOL     -0.107208
     30 H10        -7.9690   -2.6310    1.1760 hc        1 MOL      0.032278
     31 H11        -8.3480   -1.5640    2.5860 hc        1 MOL      0.032278
     32 H12        -6.2100   -1.4380    3.5210 hc        1 MOL      0.024782
     33 H13        -5.5670   -2.2060    2.1360 hc        1 MOL      0.024782
     34 H14        -6.8670   -4.3580    2.8660 hc        1 MOL      0.058437
     35 H15        -6.7180   -3.5480    4.4820 hc        1 MOL      0.058437
     36 H16        -4.2710   -3.2230    3.7960 hx        1 MOL      0.017029
     37 H17        -4.6100   -4.6190    2.6740 hx        1 MOL      0.017029
     38 H18        -5.4180   -5.8270    4.7150 hn        1 MOL      0.315875
     39 H19        -3.8900   -5.4140    4.7590 hn        1 MOL      0.315875
     40 H20        -4.8910   -4.4650    5.6150 hn        1 MOL      0.315875
     41 N4         -8.6120   -0.6310   -0.9540 n         1 MOL      0.074237
     42 C13        -9.7790   -0.5520   -1.8690 c3        1 MOL     -0.036732
     43 C14        -9.6490   -1.4740   -3.0700 c         1 MOL      0.457222
     44 O6         -9.4720   -1.0530   -4.2290 o         1 MOL     -0.490337
     45 C15       -10.1340    0.9230   -2.3440 c3        1 MOL     -0.010444
     46 C16        -8.9940    1.9170   -2.3490 c         1 MOL      0.584130
     47 O7         -8.9190    2.6940   -1.3290 o         1 MOL     -0.684088
     48 O8         -8.2730    2.0950   -3.3150 o         1 MOL     -0.684088
     49 H21        -7.6780   -0.8030   -1.2980 hn        1 MOL      0.121872
     50 H22       -10.5890   -0.9360   -1.2560 h1        1 MOL      0.059217
     51 H23       -10.9590    1.3450   -1.7780 hc        1 MOL      0.021180
     52 H24       -10.6360    0.9280   -3.3200 hc        1 MOL      0.021180
     53 N5         -9.7480   -2.8200   -2.9270 n         1 MOL     -0.460365
     54 C17        -9.8730   -3.5460   -1.7140 c3        1 MOL     -0.039275
     55 C18        -8.5820   -4.1820   -1.2210 c         1 MOL      0.527419
     56 O9         -8.5030   -4.6480   -0.0810 o         1 MOL     -0.601292
     57 H25        -9.6760   -3.3080   -3.8110 hn        1 MOL      0.330535
     58 H26       -10.4860   -4.4200   -1.9210 h1        1 MOL      0.073622
     59 H27       -10.3760   -3.0430   -0.8790 h1        1 MOL      0.073622
     60 N6         -7.4930   -4.2500   -2.0360 n         1 MOL     -0.347120
     61 C19        -6.1020   -4.5240   -1.6170 c3        1 MOL      0.047892
     62 C20        -5.4590   -3.2120   -1.0920 c         1 MOL      0.421708
     63 O10        -5.9290   -2.1210   -1.3970 o         1 MOL     -0.400124
     64 C21        -5.2920   -5.0020   -2.7930 c3        1 MOL     -0.253474
     65 C22        -5.3650   -4.1770   -4.0950 c         1 MOL      0.734439
     66 O11        -4.3200   -3.6380   -4.5360 o         1 MOL     -0.685503
     67 O12        -6.4590   -4.0320   -4.6770 o         1 MOL     -0.685503
     68 H28        -7.8020   -3.9880   -2.9580 hn        1 MOL      0.227951
     69 H29        -6.1230   -5.2750   -0.8160 h1        1 MOL      0.066289
     70 H30        -5.4490   -6.0500   -3.0280 hc        1 MOL      0.050615
     71 H31        -4.2260   -5.0350   -2.5800 hc        1 MOL      0.050615
     72 N7         -4.3140   -3.2420   -0.4580 n         1 MOL     -0.312136
     73 C23        -3.4880   -2.0490   -0.2720 c3        1 MOL     -0.173960
     74 C24        -2.2850   -2.1430    0.6230 c         1 MOL      0.645355
     75 O13        -1.7980   -3.2470    0.8890 o         1 MOL     -0.564747
     76 H32        -3.8600   -4.1330   -0.2860 hn        1 MOL      0.247126
     77 H33        -4.1550   -1.2240    0.0000 h1        1 MOL      0.115552
     78 H34        -3.1210   -1.7480   -1.2530 h1        1 MOL      0.115552
     79 N8         -1.8970   -1.0500    1.2990 n         1 MOL     -0.577050
     80 C25        -0.9130   -1.0020    2.4310 c3        1 MOL      0.034173
     81 C26         0.1390    0.0870    2.1390 c         1 MOL      0.651146
     82 O14        -0.1450    1.0580    1.5090 o         1 MOL     -0.499997
     83 C27        -1.5200   -0.8700    3.8590 c3        1 MOL      0.194202
     84 C28        -2.4060    0.3560    4.0180 c3        1 MOL     -0.257563
     85 O15        -2.4630   -1.9840    4.0340 oh        1 MOL     -0.565399
     86 H35        -2.3930   -0.1870    1.1280 hn        1 MOL      0.299049
     87 H36        -0.4140   -1.9720    2.5050 h1        1 MOL      0.058810
     88 H37        -0.7700   -0.7870    4.6450 h1        1 MOL      0.048400
     89 H38        -1.9370   -2.7870    4.1390 ho        1 MOL      0.328552
     90 H39        -2.7060    0.4440    5.0750 hc        1 MOL      0.096226
     91 H40        -1.8770    1.2560    3.7190 hc        1 MOL      0.096226
     92 H41        -3.3310    0.1340    3.5030 hc        1 MOL      0.096226
     93 N9          1.3440   -0.0860    2.7560 n         1 MOL     -0.620822
     94 C29         2.4670    0.8770    2.6930 c3        1 MOL      0.065317
     95 C30         3.5110    0.6040    1.5930 c         1 MOL      0.623302
     96 O16         4.0500    1.4710    0.9300 o         1 MOL     -0.534052
     97 C31         3.1000    1.0270    4.1150 c3        1 MOL      0.037357
     98 C32         2.0680    1.2520    5.2800 c3        1 MOL     -0.050926
     99 C33         4.1980    2.0880    4.1830 c3        1 MOL     -0.301788
    100 C34         1.1610    2.4710    5.0580 c3        1 MOL     -0.008912
    101 H42         1.4430   -0.8000    3.4650 hn        1 MOL      0.306194
    102 H43         2.0470    1.8600    2.4870 h1        1 MOL      0.053743
    103 H44         3.5580    0.0720    4.3990 hc        1 MOL      0.014763
    104 H45         2.5480    1.4480    6.2390 hc        1 MOL      0.017987
    105 H46         1.3940    0.3900    5.3450 hc        1 MOL      0.017987
    106 H47         3.9320    2.9640    3.5960 hc        1 MOL      0.098157
    107 H48         4.3560    2.4870    5.1870 hc        1 MOL      0.098157
    108 H49         5.1370    1.7450    3.7410 hc        1 MOL      0.098157
    109 H50         1.7800    3.3660    5.0660 hc        1 MOL      0.015674
    110 H51         0.5750    2.3620    4.1380 hc        1 MOL      0.015674
    111 H52         0.4010    2.5060    5.8410 hc        1 MOL      0.015674
    112 N10         3.8350   -0.7200    1.4490 n         1 MOL     -0.498312
    113 C35         4.6360   -1.3040    0.3730 c3        1 MOL      0.025304
    114 C36         5.6570   -2.1970    0.9460 c         1 MOL      0.617461
    115 O17         5.3320   -2.8100    2.0000 o         1 MOL     -0.568074
    116 C37         3.7120   -2.0520   -0.6260 c3        1 MOL      0.314220
    117 C38         2.4880   -1.2070   -1.1040 c3        1 MOL     -0.350882
    118 O18         4.5170   -2.3220   -1.7320 oh        1 MOL     -0.643309
    119 H53         3.4300   -1.2930    2.1800 hn        1 MOL      0.248213
    120 H54         5.2580   -0.6230   -0.2040 h1        1 MOL      0.084903
    121 H55         3.4700   -3.0230   -0.1940 h1        1 MOL      0.021951
    122 H56         3.9890   -2.4280   -2.5270 ho        1 MOL      0.416361
    123 H57         2.8070   -0.3940   -1.7580 hc        1 MOL      0.105279
    124 H58         1.8570   -1.8380   -1.7370 hc        1 MOL      0.105279
    125 H59         1.8800   -0.8550   -0.2780 hc        1 MOL      0.105279
    126 N11         6.8110   -2.4600    0.3380 n         1 MOL     -0.547601
    127 C39         7.8570   -3.3170    0.9920 c3        1 MOL      0.096547
    128 C40         9.2520   -2.6890    0.9850 c         1 MOL      0.462011
    129 O19         9.9170   -2.6620    2.0190 o         1 MOL     -0.533805
    130 C41         7.8030   -4.7480    0.3890 c3        1 MOL      0.306659
    131 C42         8.4910   -4.8800   -0.9900 c3        1 MOL     -0.351607
    132 O20         6.4320   -5.1500    0.1900 oh        1 MOL     -0.554911
    133 H60         6.8550   -2.0910   -0.6030 hn        1 MOL      0.330756
    134 H61         7.6330   -3.4730    2.0450 h1        1 MOL      0.071716
    135 H62         8.2650   -5.4080    1.1140 h1        1 MOL     -0.010855
    136 H63         6.1130   -5.3120    1.0840 ho        1 MOL      0.372743
    137 H64         7.9840   -5.7780   -1.3330 hc        1 MOL      0.103241
    138 H65         8.3060   -3.9990   -1.6110 hc        1 MOL      0.103241
    139 H66         9.5710   -4.9980   -0.9880 hc        1 MOL      0.103241
    140 N12         9.5890   -1.8790   -0.0380 n         1 MOL     -0.367231
    141 C43        10.8950   -1.0930   -0.2220 c3        1 MOL      0.213569
    142 C44        10.6850    0.1910   -1.0060 c         1 MOL      0.458194
    143 O21         9.9170    0.1530   -2.0150 o         1 MOL     -0.503141
    144 C45        11.8920   -1.9510   -1.0510 c3        1 MOL     -0.491363
    145 C46        13.2480   -1.2610   -1.4110 c3        1 MOL      0.381942
    146 C47        14.4760   -2.1350   -1.7450 c3        1 MOL     -0.336244
    147 C48        15.7670   -1.2820   -1.9550 c3        1 MOL      0.331941
    148 N13        16.7440   -1.8050   -2.8910 n4        1 MOL     -0.469144
    149 H67         8.9360   -1.9400   -0.8000 hn        1 MOL      0.209226
    150 H68        11.3690   -0.8320    0.7210 h1        1 MOL      0.040978
    151 H69        11.4250   -2.3210   -1.9620 hc        1 MOL      0.133100
    152 H70        12.2240   -2.7690   -0.4140 hc        1 MOL      0.133100
    153 H71        13.5700   -0.5700   -0.6290 hc        1 MOL     -0.014339
    154 H72        13.0380   -0.7520   -2.3570 hc        1 MOL     -0.014339
    155 H73        14.2600   -2.6710   -2.6710 hc        1 MOL      0.073689
    156 H74        14.5270   -2.6780   -0.8000 hc        1 MOL      0.073689
    157 H75        16.1970   -1.0780   -0.9730 hx        1 MOL     -0.000230
    158 H76        15.3290   -0.3630   -2.3460 hx        1 MOL     -0.000230
    159 H77        17.5950   -1.2610   -2.8790 hn        1 MOL      0.331779
    160 H78        16.9100   -2.7900   -2.7050 hn        1 MOL      0.331779
    161 H79        16.3900   -1.6400   -3.8170 hn        1 MOL      0.331779
    162 N14        11.2740    1.2410   -0.6500 n         1 MOL     -0.662112
    163 C49        11.0820    2.5380   -1.4310 c3        1 MOL      0.375809
    164 C50         9.7310    3.1360   -1.2360 c         1 MOL      0.276468
    165 O22         9.0760    3.2520   -2.2850 o         1 MOL     -0.534132
    166 C51        12.1160    3.5580   -1.1350 c3        1 MOL      0.077678
    167 C52        13.5340    3.1010   -1.6620 c3        1 MOL     -0.191530
    168 C53        14.6440    4.2730   -1.5520 c         1 MOL      0.654999
    169 O23        15.2320    4.5980   -0.4860 o         1 MOL     -0.662440
    170 O24        14.9600    4.7630   -2.6740 o         1 MOL     -0.662440
    171 H80        11.8660    1.1930    0.1740 hn        1 MOL      0.376715
    172 H81        11.0880    2.3000   -2.4950 h1        1 MOL      0.052053
    173 H82        12.1970    3.7850   -0.0710 hc        1 MOL     -0.000825
    174 H83        11.8990    4.4470   -1.7310 hc        1 MOL     -0.000825
    175 H84        13.4930    2.8070   -2.7040 hc        1 MOL     -0.018606
    176 H85        13.8670    2.3080   -0.9810 hc        1 MOL     -0.018606
    177 N15         9.2130    3.4490   -0.1190 n         1 MOL     -0.219447
    178 C54         9.9200    3.5250    1.2060 c3        1 MOL     -0.140080
    179 H86         9.9600    4.5630    1.5370 h1        1 MOL      0.072261
    180 H87         9.3780    2.9310    1.9420 h1        1 MOL      0.072261
    181 H88        10.9330    3.1370    1.1000 h1        1 MOL      0.072261
    182 H89         8.3270    3.9110   -0.2860 hn        1 MOL      0.273748
    183 Ca1        -6.6200    3.7240   -1.9280 Ca        1 MOL      1.647181
    184 O25        -5.4340    1.6360   -3.0270 oh        1 MOL     -0.796844
    185 H90        -5.7470    0.8750   -3.5270 ho        1 MOL      0.404072
    186 H91        -4.5670    1.3790   -2.7340 ho        1 MOL      0.404072
    187 O26        -5.2790    5.9950   -2.4500 oh        1 MOL     -0.796844
    188 H92        -5.0830    6.5130   -1.6690 ho        1 MOL      0.404072
    189 H93        -5.2000    6.6160   -3.1720 ho        1 MOL      0.404072
    190 O27        -4.0690    3.6930   -1.0330 oh        1 MOL     -0.796844
    191 H94        -3.5100    3.0370   -0.6160 ho        1 MOL      0.404072
    192 H95        -3.4580    4.3370   -1.3860 ho        1 MOL      0.404072
    193 O28        -6.0900    3.8290   -4.5560 oh        1 MOL     -0.796844
    194 H96        -6.0260    2.9500   -4.9200 ho        1 MOL      0.404072
    195 H97        -6.0200    4.4110   -5.3150 ho        1 MOL      0.404072
    196 O29        -8.3680    5.9550   -2.5070 oh        1 MOL     -0.796844
    197 H98        -8.7740    5.8060   -1.6540 ho        1 MOL      0.404072
    198 H99        -8.0730    6.8690   -2.4760 ho        1 MOL      0.404072
@<TRIPOS>BOND
     1    1    2 1   
     2    1    4 1   
     3    1    5 1   
     4    1    6 1   
     5    2    3 2   
     6    2    7 1   
     7    7    8 1   
     8    7   15 1   
     9    8    9 1   
    10    8   11 1   
    11    8   16 1   
    12    9   10 2   
    13    9   19 1   
    14   11   12 1   
    15   11   17 1   
    16   11   18 1   
    17   12   13 1   
    18   12   14 1   
    19   19   20 1   
    20   19   28 1   
    21   20   21 1   
    22   20   23 1   
    23   20   29 1   
    24   21   22 2   
    25   21   41 1   
    26   23   24 1   
    27   23   30 1   
    28   23   31 1   
    29   24   25 1   
    30   24   32 1   
    31   24   33 1   
    32   25   26 1   
    33   25   34 1   
    34   25   35 1   
    35   26   27 1   
    36   26   36 1   
    37   26   37 1   
    38   27   38 1   
    39   27   39 1   
    40   27   40 1   
    41   41   42 1   
    42   41   49 1   
    43   42   43 1   
    44   42   45 1   
    45   42   50 1   
    46   43   44 2   
    47   43   53 1   
    48   45   46 1   
    49   45   51 1   
    50   45   52 1   
    51   46   47 1   
    52   46   48 1   
    53   53   54 1   
    54   53   57 1   
    55   54   55 1   
    56   54   58 1   
    57   54   59 1   
    58   55   56 2   
    59   55   60 1   
    60   60   61 1   
    61   60   68 1   
    62   61   62 1   
    63   61   64 1   
    64   61   69 1   
    65   62   63 2   
    66   62   72 1   
    67   64   65 1   
    68   64   70 1   
    69   64   71 1   
    70   65   66 1   
    71   65   67 1   
    72   72   73 1   
    73   72   76 1   
    74   73   74 1   
    75   73   77 1   
    76   73   78 1   
    77   74   75 2   
    78   74   79 1   
    79   79   80 1   
    80   79   86 1   
    81   80   81 1   
    82   80   83 1   
    83   80   87 1   
    84   81   82 2   
    85   81   93 1   
    86   83   84 1   
    87   83   85 1   
    88   83   88 1   
    89   84   90 1   
    90   84   91 1   
    91   84   92 1   
    92   85   89 1   
    93   93   94 1   
    94   93  101 1   
    95   94   95 1   
    96   94   97 1   
    97   94  102 1   
    98   95   96 2   
    99   95  112 1   
   100   97   98 1   
   101   97   99 1   
   102   97  103 1   
   103   98  100 1   
   104   98  104 1   
   105   98  105 1   
   106   99  106 1   
   107   99  107 1   
   108   99  108 1   
   109  100  109 1   
   110  100  110 1   
   111  100  111 1   
   112  112  113 1   
   113  112  119 1   
   114  113  114 1   
   115  113  116 1   
   116  113  120 1   
   117  114  115 2   
   118  114  126 1   
   119  116  117 1   
   120  116  118 1   
   121  116  121 1   
   122  117  123 1   
   123  117  124 1   
   124  117  125 1   
   125  118  122 1   
   126  126  127 1   
   127  126  133 1   
   128  127  128 1   
   129  127  130 1   
   130  127  134 1   
   131  128  129 2   
   132  128  140 1   
   133  130  131 1   
   134  130  132 1   
   135  130  135 1   
   136  131  137 1   
   137  131  138 1   
   138  131  139 1   
   139  132  136 1   
   140  140  141 1   
   141  140  149 1   
   142  141  142 1   
   143  141  144 1   
   144  141  150 1   
   145  142  143 2   
   146  142  162 1   
   147  144  145 1   
   148  144  151 1   
   149  144  152 1   
   150  145  146 1   
   151  145  153 1   
   152  145  154 1   
   153  146  147 1   
   154  146  155 1   
   155  146  156 1   
   156  147  148 1   
   157  147  157 1   
   158  147  158 1   
   159  148  159 1   
   160  148  160 1   
   161  148  161 1   
   162  162  163 1   
   163  162  171 1   
   164  163  164 1   
   165  163  166 1   
   166  163  172 1   
   167  164  165 2   
   168  164  177 1   
   169  166  167 1   
   170  166  173 1   
   171  166  174 1   
   172  167  168 1   
   173  167  175 1   
   174  167  176 1   
   175  168  169 1   
   176  168  170 1   
   177  177  178 1   
   178  177  182 1   
   179  178  179 1   
   180  178  180 1   
   181  178  181 1   
   182  184  185 1   
   183  184  186 1   
   184  187  188 1   
   185  187  189 1   
   186  190  191 1   
   187  190  192 1   
   188  193  194 1   
   189  193  195 1   
   190  196  197 1   
   191  196  198 1   
@<TRIPOS>SUBSTRUCTURE
     1 MOL         1 TEMP              0 ****  ****    0 ROOT
