@<TRIPOS>MOLECULE
MOL
  195   189     1     0     0
SMALL
resp


@<TRIPOS>ATOM
      1 C1         -5.4840    5.6830    1.5280 c3        1 MOL     -0.336622
      2 C2         -4.8910    4.4970    0.6290 c         1 MOL      0.678634
      3 O1         -5.6480    3.9450   -0.1940 o         1 MOL     -0.606977
      4 H1         -5.1990    6.6420    1.0970 hc        1 MOL      0.088085
      5 H2         -6.5710    5.6080    1.5600 hc        1 MOL      0.088085
      6 H3         -5.0850    5.6060    2.5400 hc        1 MOL      0.088085
      7 N1         -3.6320    4.0640    0.6770 n         1 MOL     -0.574639
      8 C3         -2.5210    4.2960    1.6500 c3        1 MOL      0.324875
      9 C4         -1.6560    5.4660    1.0330 c         1 MOL      0.319793
     10 O2         -1.3660    6.4320    1.6810 o         1 MOL     -0.548148
     11 C5         -1.7340    3.0590    2.2030 c3        1 MOL     -0.296052
     12 C6         -2.5920    1.8610    2.6400 c         1 MOL      0.943062
     13 O3         -2.9580    1.7890    3.8350 o         1 MOL     -0.847876
     14 O4         -3.0080    1.0390    1.8030 o         1 MOL     -0.847876
     15 H4         -3.5440    3.1820    0.2010 hn        1 MOL      0.329263
     16 H5         -2.8570    4.7430    2.5860 h1        1 MOL      0.003215
     17 H6         -1.0670    3.2660    3.0360 hc        1 MOL      0.053773
     18 H7         -1.2010    2.5610    1.3900 hc        1 MOL      0.053773
     19 N2         -1.2230    5.2750   -0.1890 n         1 MOL      0.021035
     20 C7         -0.6720    6.3550   -1.1350 c3        1 MOL     -0.352939
     21 C8          0.8320    6.4620   -0.9710 c         1 MOL      0.480022
     22 O5          1.3440    7.4470   -1.4870 o         1 MOL     -0.530622
     23 C9         -1.1120    6.0730   -2.6010 c3        1 MOL      0.104370
     24 C10        -0.7340    4.6750   -3.1810 c3        1 MOL      0.183761
     25 C11        -2.5770    6.2450   -2.7320 c3        1 MOL     -0.125148
     26 C12         0.4690    4.7710   -4.1040 c3        1 MOL     -0.175792
     27 H8         -1.4270    4.3850   -0.6110 hn        1 MOL      0.116947
     28 H9         -1.0890    7.2990   -0.7760 h1        1 MOL      0.169796
     29 H10        -0.6200    6.8060   -3.2400 hc        1 MOL      0.037254
     30 H11        -1.5570    4.2230   -3.7380 hc        1 MOL     -0.044435
     31 H12        -0.4220    4.0060   -2.3880 hc        1 MOL     -0.044435
     32 H13        -2.7740    6.3450   -3.8000 hc        1 MOL      0.015052
     33 H14        -3.1200    5.4090   -2.2850 hc        1 MOL      0.015052
     34 H15        -2.9680    7.1270   -2.2270 hc        1 MOL      0.015052
     35 H16         0.8790    3.7610   -4.2230 hc        1 MOL      0.033173
     36 H17         0.1730    5.1340   -5.0830 hc        1 MOL      0.033173
     37 H18         1.1560    5.5300   -3.7250 hc        1 MOL      0.033173
     38 N3          1.5720    5.4360   -0.4390 n         1 MOL     -0.060441
     39 C13         2.9970    5.5890   -0.2590 c3        1 MOL      0.007051
     40 C14         3.5640    4.9010    1.0090 c         1 MOL      0.419687
     41 O6          2.7910    4.5740    1.8990 o         1 MOL     -0.506764
     42 C15         3.5760    5.1350   -1.6070 c3        1 MOL     -0.213779
     43 C16         5.0770    5.4320   -1.8420 c         1 MOL      0.741631
     44 O7          5.5510    6.4730   -1.3170 o         1 MOL     -0.727078
     45 O8          5.7650    4.5930   -2.5030 o         1 MOL     -0.727078
     46 H19         1.2090    4.5900   -0.0340 hn        1 MOL      0.024045
     47 H20         3.1980    6.6550   -0.1510 h1        1 MOL      0.046950
     48 H21         2.9900    5.4370   -2.4690 hc        1 MOL      0.032019
     49 H22         3.5100    4.0420   -1.5500 hc        1 MOL      0.032019
     50 N4          4.8790    4.8500    1.0890 n         1 MOL     -0.341680
     51 C17         5.5360    4.0440    2.0980 c3        1 MOL      0.107752
     52 C18         5.8000    2.5800    1.6450 c         1 MOL      0.636433
     53 O9          4.8790    1.8900    1.1090 o         1 MOL     -0.622440
     54 H23         5.4510    5.2900    0.3850 hn        1 MOL      0.270485
     55 H24         4.8380    3.9550    2.9380 h1        1 MOL      0.014955
     56 H25         6.3970    4.5320    2.5530 h1        1 MOL      0.014955
     57 N5          7.0330    2.0360    1.7120 n         1 MOL     -0.613329
     58 C19         7.3570    0.6790    1.2630 c3        1 MOL      0.346315
     59 C20         7.8020    0.7300   -0.2450 c         1 MOL      0.550668
     60 O10         8.2830    1.7740   -0.6750 o         1 MOL     -0.453904
     61 C21         8.5920    0.1620    2.1290 c3        1 MOL     -0.436092
     62 C22         9.8340    1.0870    2.0340 c         1 MOL      0.799152
     63 O11         9.7860    2.2530    2.5120 o         1 MOL     -0.720851
     64 O12        10.8910    0.7020    1.6480 o         1 MOL     -0.720851
     65 H26         7.7940    2.6500    1.9750 hn        1 MOL      0.256586
     66 H27         6.5430    0.0020    1.5320 h1        1 MOL     -0.002836
     67 H28         8.8330   -0.8220    1.7150 hc        1 MOL      0.074179
     68 H29         8.2500    0.0240    3.1500 hc        1 MOL      0.074179
     69 N6          7.5830   -0.3650   -1.0410 n         1 MOL     -0.672371
     70 C23         6.8960   -1.5160   -0.6570 c3        1 MOL      0.264205
     71 C24         7.0370   -2.6670   -1.6440 c         1 MOL      0.534156
     72 O13         7.5870   -2.5720   -2.7610 o         1 MOL     -0.539695
     73 H30         7.7780   -0.2160   -2.0190 hn        1 MOL      0.317484
     74 H31         5.8520   -1.2190   -0.6310 h1        1 MOL      0.054474
     75 H32         7.3370   -1.8260    0.2900 h1        1 MOL      0.054474
     76 N7          6.6920   -3.9350   -1.2360 n         1 MOL     -0.596153
     77 C25         6.1500   -4.4640    0.0610 c3        1 MOL      0.067846
     78 C26         5.0430   -3.6850    0.7610 c         1 MOL      0.625715
     79 O14         5.4510   -2.8160    1.5120 o         1 MOL     -0.476761
     80 C27         7.2930   -4.7420    1.0300 c3        1 MOL      0.065284
     81 C28         6.8890   -5.8210    2.0710 c3        1 MOL     -0.193288
     82 C29         6.3450   -7.1360    1.5440 c         1 MOL      0.629708
     83 N8          7.1670   -8.0540    1.1840 n         1 MOL     -0.753250
     84 O15         5.1710   -7.3960    1.5260 o         1 MOL     -0.572488
     85 H33         6.8850   -4.6490   -1.9240 hn        1 MOL      0.317843
     86 H34         5.7420   -5.4400   -0.1930 h1        1 MOL      0.079491
     87 H35         7.5400   -3.8020    1.5120 hc        1 MOL     -0.003579
     88 H36         8.1350   -5.1820    0.4900 hc        1 MOL     -0.003579
     89 H37         6.0080   -5.4170    2.5850 hc        1 MOL      0.050013
     90 H38         7.6960   -5.9940    2.7940 hc        1 MOL      0.050013
     91 H39         8.1730   -7.9620    1.2740 hn        1 MOL      0.345265
     92 H40         6.7200   -8.9600    1.1840 hn        1 MOL      0.345265
     93 N9          3.7910   -3.7210    0.2120 n         1 MOL     -0.704843
     94 C30         2.7470   -2.7160    0.3350 c3        1 MOL      0.060992
     95 C31         2.4240   -2.1350   -1.0390 c         1 MOL      0.615574
     96 O16         2.9490   -2.6360   -2.0260 o         1 MOL     -0.577751
     97 C32         1.5240   -3.2350    1.0780 c3        1 MOL      0.341976
     98 C33         1.7570   -3.5730    2.5240 c3        1 MOL     -0.363853
     99 C34         0.8040   -4.3840    0.3330 c3        1 MOL     -0.363853
    100 H41         3.6980   -4.3000   -0.6070 hn        1 MOL      0.328591
    101 H42         3.2000   -1.9110    0.9190 h1        1 MOL      0.039455
    102 H43         0.7970   -2.4270    0.9800 hc        1 MOL     -0.034278
    103 H44         2.2140   -2.7240    3.0150 hc        1 MOL      0.089403
    104 H45         0.8190   -3.7900    3.0390 hc        1 MOL      0.089403
    105 H46         2.4070   -4.4540    2.5700 hc        1 MOL      0.089403
    106 H47         1.4780   -5.0030   -0.2740 hc        1 MOL      0.089403
    107 H48         0.2510   -4.9530    1.0720 hc        1 MOL      0.089403
    108 H49         0.0220   -4.0950   -0.3660 hc        1 MOL      0.089403
    109 N10         1.5690   -1.1000   -1.1020 n         1 MOL     -0.493801
    110 C35         1.3150   -0.2510   -2.2830 c3        1 MOL      0.267386
    111 C36        -0.1820   -0.2440   -2.7280 c         1 MOL      0.389764
    112 O17        -0.6420    0.6340   -3.4510 o         1 MOL     -0.484130
    113 C37         1.8540    1.1110   -1.9150 c3        1 MOL     -0.486003
    114 C38         1.2460    1.8030   -0.7400 c         1 MOL      0.823914
    115 N11         2.0520    2.0060    0.3030 n         1 MOL     -0.822253
    116 O18         0.1360    2.2140   -0.6920 o         1 MOL     -0.532333
    117 H50         1.1900   -0.8340   -0.2090 hn        1 MOL      0.236900
    118 H51         1.7940   -0.6810   -3.1560 h1        1 MOL      0.080993
    119 H52         1.6730    1.8140   -2.7240 hc        1 MOL      0.150033
    120 H53         2.9360    1.0190   -1.7610 hc        1 MOL      0.150033
    121 H54         3.0370    1.7830    0.2690 hn        1 MOL      0.366701
    122 H55         1.6390    2.3530    1.1550 hn        1 MOL      0.366701
    123 N12        -1.0180   -1.1920   -2.2420 n         1 MOL     -0.333213
    124 C39        -2.4240   -1.3450   -2.6710 c3        1 MOL     -0.058640
    125 C40        -3.3660   -2.0340   -1.6940 c         1 MOL      0.813212
    126 O19        -2.8900   -2.7100   -0.7990 o         1 MOL     -0.545758
    127 C41        -2.3430   -2.2500   -3.9590 c3        1 MOL      0.021201
    128 C42        -1.5570   -3.5270   -3.8340 ca        1 MOL      0.019732
    129 C43        -2.1310   -4.7630   -3.3480 ca        1 MOL     -0.152047
    130 C44        -0.1810   -3.4890   -4.0580 ca        1 MOL     -0.152047
    131 C45        -1.3180   -5.8560   -3.1000 ca        1 MOL     -0.224508
    132 C46         0.6350   -4.5660   -3.7030 ca        1 MOL     -0.224508
    133 C47         0.0710   -5.7610   -3.2330 ca        1 MOL      0.279538
    134 O20         0.7890   -6.8820   -2.9360 oh        1 MOL     -0.495843
    135 H56        -0.8210   -1.8580   -1.5020 hn        1 MOL      0.209329
    136 H57        -2.8410   -0.3520   -2.8420 h1        1 MOL      0.113121
    137 H58        -1.9510   -1.5260   -4.6760 hc        1 MOL     -0.003648
    138 H59        -3.3490   -2.4530   -4.2970 hc        1 MOL     -0.003648
    139 H60        -3.1690   -4.7240   -3.0410 ha        1 MOL      0.131594
    140 H61         0.2300   -2.5880   -4.5070 ha        1 MOL      0.131594
    141 H62        -1.7480   -6.7640   -2.7000 ha        1 MOL      0.149331
    142 H63         1.6990   -4.5880   -3.9040 ha        1 MOL      0.149331
    143 H64         1.6730   -6.8010   -3.2840 ho        1 MOL      0.364320
    144 N13        -4.7420   -2.0240   -2.0000 n         1 MOL     -0.762405
    145 C48        -5.8340   -2.7490   -1.3760 c3        1 MOL      0.284431
    146 C49        -7.0470   -1.8040   -1.1880 c         1 MOL      0.343300
    147 O21        -8.1430   -2.0330   -1.7190 o         1 MOL     -0.496014
    148 C50        -6.2150   -4.0950   -1.9830 c3        1 MOL      0.048844
    149 C51        -7.3240   -5.0160   -1.3610 c3        1 MOL     -0.234697
    150 C52        -7.0360   -5.6330   -0.0220 c         1 MOL      0.648855
    151 O22        -6.3220   -6.6700    0.1490 o         1 MOL     -0.713517
    152 O23        -7.4360   -4.9850    0.9930 o         1 MOL     -0.713517
    153 H65        -5.0550   -1.5890   -2.8540 hn        1 MOL      0.341482
    154 H66        -5.5000   -2.9090   -0.3450 h1        1 MOL      0.047548
    155 H67        -5.3100   -4.6940   -2.1010 hc        1 MOL     -0.019928
    156 H68        -6.5600   -3.8190   -2.9820 hc        1 MOL     -0.019928
    157 H69        -7.5080   -5.8030   -2.0820 hc        1 MOL      0.037205
    158 H70        -8.2660   -4.4890   -1.2480 hc        1 MOL      0.037205
    159 N14        -6.9160   -0.6940   -0.4440 n         1 MOL     -0.288213
    160 C53        -7.8390    0.4090   -0.5290 c3        1 MOL     -0.009305
    161 C54        -7.6800    1.2800   -1.7730 c         1 MOL      0.288083
    162 O24        -8.5590    2.0740   -2.2240 o         1 MOL     -0.518149
    163 C55        -7.7160    1.3790    0.6650 c3        1 MOL      0.105579
    164 C56        -7.9320    0.8810    2.0280 c3        1 MOL     -0.250811
    165 C57        -6.7700    0.2050    2.7020 c         1 MOL      0.741127
    166 O25        -6.5560   -1.0260    2.7080 o         1 MOL     -0.743103
    167 O26        -5.9260    0.9670    3.2140 o         1 MOL     -0.743103
    168 H71        -6.0240   -0.5450    0.0010 hn        1 MOL      0.299559
    169 H72        -8.8280   -0.0490   -0.5510 h1        1 MOL      0.117715
    170 H73        -8.5160    2.0860    0.4730 hc        1 MOL      0.031633
    171 H74        -6.6840    1.7340    0.6450 hc        1 MOL      0.031633
    172 H75        -8.7900    0.1950    1.9610 hc        1 MOL      0.040699
    173 H76        -8.2570    1.6870    2.6810 hc        1 MOL      0.040699
    174 N15        -6.4840    1.1790   -2.4390 n         1 MOL     -0.057121
    175 C58        -6.0810    1.7580   -3.7640 c3        1 MOL     -0.155919
    176 H77        -5.3150    2.5180   -3.6110 h1        1 MOL      0.079905
    177 H78        -5.6860    0.9680   -4.4020 h1        1 MOL      0.079905
    178 H79        -6.9490    2.2120   -4.2420 h1        1 MOL      0.079905
    179 H80        -5.8030    0.6320   -1.9240 hn        1 MOL      0.079523
    180 Ca1        -4.1380   -0.6990    3.7200 Ca        1 MOL      1.705910
    181 O27        -3.5320   -2.5930    1.7170 oh        1 MOL     -0.809687
    182 H81        -3.3350   -2.6020    0.7880 ho        1 MOL      0.399369
    183 H82        -3.2760   -3.4690    2.0260 ho        1 MOL      0.399369
    184 O28        -3.0880   -0.8720    6.2970 oh        1 MOL     -0.809687
    185 H83        -2.4350   -0.6320    6.9450 ho        1 MOL      0.399369
    186 H84        -3.8260   -1.2080    6.8170 ho        1 MOL      0.399369
    187 O29        -4.7660   -3.2340    4.5480 oh        1 MOL     -0.809687
    188 H85        -5.0670   -3.9130    3.9280 ho        1 MOL      0.399369
    189 H86        -5.0040   -3.5740    5.4080 ho        1 MOL      0.399369
    190 O30        -1.5290   -1.2360    3.4970 oh        1 MOL     -0.809687
    191 H87        -0.9820   -0.6190    3.9920 ho        1 MOL      0.399369
    192 H88        -1.2080   -2.0950    3.7660 ho        1 MOL      0.399369
    193 O31        -5.8980   -0.4640    5.9210 oh        1 MOL     -0.809687
    194 H89        -5.7110   -0.6030    6.8460 ho        1 MOL      0.399369
    195 H90        -6.0510    0.4800    5.8440 ho        1 MOL      0.399369
@<TRIPOS>BOND
     1    1    2 1   
     2    1    4 1   
     3    1    5 1   
     4    1    6 1   
     5    2    3 2   
     6    2    7 1   
     7    7    8 1   
     8    7   15 1   
     9    8    9 1   
    10    8   11 1   
    11    8   16 1   
    12    9   10 2   
    13    9   19 1   
    14   11   12 1   
    15   11   17 1   
    16   11   18 1   
    17   12   13 1   
    18   12   14 1   
    19   19   20 1   
    20   19   27 1   
    21   20   21 1   
    22   20   23 1   
    23   20   28 1   
    24   21   22 2   
    25   21   38 1   
    26   23   24 1   
    27   23   25 1   
    28   23   29 1   
    29   24   26 1   
    30   24   30 1   
    31   24   31 1   
    32   25   32 1   
    33   25   33 1   
    34   25   34 1   
    35   26   35 1   
    36   26   36 1   
    37   26   37 1   
    38   38   39 1   
    39   38   46 1   
    40   39   40 1   
    41   39   42 1   
    42   39   47 1   
    43   40   41 2   
    44   40   50 1   
    45   42   43 1   
    46   42   48 1   
    47   42   49 1   
    48   43   44 1   
    49   43   45 1   
    50   50   51 1   
    51   50   54 1   
    52   51   52 1   
    53   51   55 1   
    54   51   56 1   
    55   52   53 2   
    56   52   57 1   
    57   57   58 1   
    58   57   65 1   
    59   58   59 1   
    60   58   61 1   
    61   58   66 1   
    62   59   60 2   
    63   59   69 1   
    64   61   62 1   
    65   61   67 1   
    66   61   68 1   
    67   62   63 1   
    68   62   64 1   
    69   69   70 1   
    70   69   73 1   
    71   70   71 1   
    72   70   74 1   
    73   70   75 1   
    74   71   72 2   
    75   71   76 1   
    76   76   77 1   
    77   76   85 1   
    78   77   78 1   
    79   77   80 1   
    80   77   86 1   
    81   78   79 2   
    82   78   93 1   
    83   80   81 1   
    84   80   87 1   
    85   80   88 1   
    86   81   82 1   
    87   81   89 1   
    88   81   90 1   
    89   82   83 1   
    90   82   84 2   
    91   83   91 1   
    92   83   92 1   
    93   93   94 1   
    94   93  100 1   
    95   94   95 1   
    96   94   97 1   
    97   94  101 1   
    98   95   96 2   
    99   95  109 1   
   100   97   98 1   
   101   97   99 1   
   102   97  102 1   
   103   98  103 1   
   104   98  104 1   
   105   98  105 1   
   106   99  106 1   
   107   99  107 1   
   108   99  108 1   
   109  109  110 1   
   110  109  117 1   
   111  110  111 1   
   112  110  113 1   
   113  110  118 1   
   114  111  112 2   
   115  111  123 1   
   116  113  114 1   
   117  113  119 1   
   118  113  120 1   
   119  114  115 1   
   120  114  116 2   
   121  115  121 1   
   122  115  122 1   
   123  123  124 1   
   124  123  135 1   
   125  124  125 1   
   126  124  127 1   
   127  124  136 1   
   128  125  126 2   
   129  125  144 1   
   130  127  128 1   
   131  127  137 1   
   132  127  138 1   
   133  128  129 ar  
   134  128  130 ar  
   135  129  131 ar  
   136  129  139 1   
   137  130  132 ar  
   138  130  140 1   
   139  131  133 ar  
   140  131  141 1   
   141  132  133 ar  
   142  132  142 1   
   143  133  134 1   
   144  134  143 1   
   145  144  145 1   
   146  144  153 1   
   147  145  146 1   
   148  145  148 1   
   149  145  154 1   
   150  146  147 2   
   151  146  159 1   
   152  148  149 1   
   153  148  155 1   
   154  148  156 1   
   155  149  150 1   
   156  149  157 1   
   157  149  158 1   
   158  150  151 1   
   159  150  152 1   
   160  159  160 1   
   161  159  168 1   
   162  160  161 1   
   163  160  163 1   
   164  160  169 1   
   165  161  162 2   
   166  161  174 1   
   167  163  164 1   
   168  163  170 1   
   169  163  171 1   
   170  164  165 1   
   171  164  172 1   
   172  164  173 1   
   173  165  166 1   
   174  165  167 1   
   175  174  175 1   
   176  174  179 1   
   177  175  176 1   
   178  175  177 1   
   179  175  178 1   
   180  181  182 1   
   181  181  183 1   
   182  184  185 1   
   183  184  186 1   
   184  187  188 1   
   185  187  189 1   
   186  190  191 1   
   187  190  192 1   
   188  193  194 1   
   189  193  195 1   
@<TRIPOS>SUBSTRUCTURE
     1 MOL         1 TEMP              0 ****  ****    0 ROOT
