@<TRIPOS>MOLECULE
MOL
  188   182     1     0     0
SMALL
resp


@<TRIPOS>ATOM
      1 C1          6.3290    0.1390    5.4890 c3        1 MOL     -0.366400
      2 C2          6.0810    0.3650    3.9550 c         1 MOL      0.719637
      3 O1          5.2260   -0.2980    3.4060 o         1 MOL     -0.570766
      4 H1          7.2640   -0.4030    5.6290 hc        1 MOL      0.092448
      5 H2          6.3900    1.1030    5.9940 hc        1 MOL      0.092448
      6 H3          5.5070   -0.4410    5.9080 hc        1 MOL      0.092448
      7 N1          6.8740    1.2450    3.3020 n         1 MOL     -0.552791
      8 C3          6.7270    1.6920    1.9090 c3        1 MOL     -0.033181
      9 C4          6.6380    0.5350    0.8440 c         1 MOL      0.602826
     10 O2          6.0480    0.7550   -0.2150 o         1 MOL     -0.565250
     11 C5          5.7980    2.8850    1.6690 c3        1 MOL     -0.390452
     12 C6          6.1530    4.0510    2.6460 c         1 MOL      0.872633
     13 O3          7.2770    4.6610    2.7730 o         1 MOL     -0.672812
     14 O4          5.2040    4.4410    3.3730 o         1 MOL     -0.672812
     15 H4          7.6680    1.5720    3.8300 hn        1 MOL      0.304413
     16 H5          7.7420    2.0320    1.6770 h1        1 MOL      0.050517
     17 H6          4.7520    2.6530    1.8790 hc        1 MOL      0.167038
     18 H7          5.9750    3.2460    0.6610 hc        1 MOL      0.167038
     19 N2          7.2710   -0.5990    1.0430 n         1 MOL     -0.290109
     20 C7          7.3530   -1.6670    0.0530 c3        1 MOL     -0.080884
     21 C8          6.0330   -2.3680   -0.1540 c         1 MOL      0.595789
     22 O5          5.7970   -3.4620    0.3720 o         1 MOL     -0.530741
     23 C9          8.5280   -2.5270    0.5120 c3        1 MOL     -0.051609
     24 C10         8.9540   -3.7390   -0.3860 c3        1 MOL     -0.126439
     25 C11        10.1260   -4.5270    0.1490 c3        1 MOL      0.140862
     26 C12        10.7490   -5.6320   -0.7390 c3        1 MOL     -0.009934
     27 N3         12.0930   -6.0010   -0.2580 n4        1 MOL     -0.257663
     28 H8          7.9570   -0.5810    1.7830 hn        1 MOL      0.220249
     29 H9          7.6970   -1.1910   -0.8730 h1        1 MOL      0.070901
     30 H10         8.1470   -2.8280    1.4820 hc        1 MOL      0.038784
     31 H11         9.4440   -2.0420    0.8570 hc        1 MOL      0.038784
     32 H12         9.1510   -3.3860   -1.4060 hc        1 MOL      0.046737
     33 H13         8.1910   -4.5100   -0.4730 hc        1 MOL      0.046737
     34 H14        10.0190   -4.8670    1.1770 hc        1 MOL     -0.002462
     35 H15        10.8700   -3.7280    0.2120 hc        1 MOL     -0.002462
     36 H16        10.6820   -5.1370   -1.7150 hx        1 MOL      0.074889
     37 H17        10.1310   -6.5320   -0.7920 hx        1 MOL      0.074889
     38 H18        12.7660   -5.3010   -0.5480 hn        1 MOL      0.242546
     39 H19        12.1920   -6.1920    0.7280 hn        1 MOL      0.242546
     40 H20        12.2790   -6.8120   -0.8330 hn        1 MOL      0.242546
     41 N4          5.0880   -1.8050   -0.9370 n         1 MOL     -0.559054
     42 C13         3.6800   -2.1970   -1.1210 c3        1 MOL      0.109132
     43 C14         3.1590   -1.6330   -2.4040 c         1 MOL      0.568698
     44 O6          3.4300   -0.5180   -2.7480 o         1 MOL     -0.479313
     45 C15         2.9100   -1.5650    0.1110 c3        1 MOL     -0.054839
     46 C16         1.4260   -1.9240    0.1510 c         1 MOL      0.604424
     47 O7          0.7450   -1.7980    1.1570 o         1 MOL     -0.676469
     48 O8          0.9120   -2.5810   -0.8230 o         1 MOL     -0.676469
     49 H21         5.4570   -0.9800   -1.3770 hn        1 MOL      0.300452
     50 H22         3.4790   -3.2690   -1.1160 h1        1 MOL      0.003328
     51 H23         3.0000   -0.4870    0.0330 hc        1 MOL      0.088986
     52 H24         3.3650   -1.8790    1.0440 hc        1 MOL      0.088986
     53 N5          2.3510   -2.3770   -3.1170 n         1 MOL     -0.549641
     54 C17         2.0580   -2.0460   -4.4900 c3        1 MOL     -0.026079
     55 C18         0.8470   -1.0500   -4.5830 c         1 MOL      0.452306
     56 O9          0.7870   -0.3880   -5.5780 o         1 MOL     -0.526975
     57 H25         2.2280   -3.3600   -2.8870 hn        1 MOL      0.321186
     58 H26         1.6910   -2.8670   -5.1010 h1        1 MOL      0.080144
     59 H27         2.8730   -1.7120   -5.1260 h1        1 MOL      0.080144
     60 N6          0.1040   -0.8840   -3.5040 n         1 MOL     -0.201027
     61 C19        -1.0520   -0.0280   -3.4640 c3        1 MOL     -0.178018
     62 C20        -0.7640    1.4340   -3.3430 c         1 MOL      0.472418
     63 O10        -1.6200    2.2380   -3.3520 o         1 MOL     -0.442970
     64 C21        -1.8570   -0.4180   -2.2250 c3        1 MOL     -0.417512
     65 C22        -2.4090   -1.8540   -2.3380 c         1 MOL      0.779171
     66 N7         -3.3810   -2.2010   -3.1710 n         1 MOL     -0.755101
     67 O11        -1.9400   -2.7670   -1.6880 o         1 MOL     -0.761411
     68 H28         0.2230   -1.4680   -2.6880 hn        1 MOL      0.203392
     69 H29        -1.6810   -0.1940   -4.3410 h1        1 MOL      0.132179
     70 H30        -2.6950    0.2360   -1.9800 hc        1 MOL      0.212675
     71 H31        -1.2300   -0.3700   -1.3350 hc        1 MOL      0.212675
     72 H32        -3.8730   -1.5080   -3.7180 hn        1 MOL      0.352970
     73 H33        -3.5380   -3.1920   -3.2970 hn        1 MOL      0.352970
     74 N8          0.5320    1.7770   -3.1410 n         1 MOL     -0.148572
     75 C23         1.0540    3.0540   -2.8420 c3        1 MOL     -0.386214
     76 C24         0.6380    3.6230   -1.4610 c         1 MOL      0.702726
     77 O12         0.6170    2.8950   -0.4910 o         1 MOL     -0.527016
     78 H34         1.1720    1.0080   -3.0570 hn        1 MOL      0.226277
     79 H35         0.8360    3.8080   -3.6060 h1        1 MOL      0.153446
     80 H36         2.1330    2.9460   -2.8280 h1        1 MOL      0.153446
     81 N9          0.3990    4.9900   -1.4020 n         1 MOL     -0.619047
     82 C25        -0.0920    5.7720   -0.3360 c3        1 MOL      0.045403
     83 C26        -1.4670    5.2760    0.2390 c         1 MOL      0.499714
     84 O13        -2.4840    5.8740   -0.1210 o         1 MOL     -0.540063
     85 C27         0.9370    5.8830    0.7820 c3        1 MOL     -0.160789
     86 C28         2.3020    6.2760    0.2120 ca        1 MOL      0.163668
     87 C29         3.4760    5.4920    0.3750 ca        1 MOL     -0.212703
     88 C30         2.4400    7.5160   -0.4400 ca        1 MOL     -0.212703
     89 C31         4.7500    5.9580   -0.0040 ca        1 MOL     -0.205579
     90 C32         3.7020    7.9470   -0.9020 ca        1 MOL     -0.205579
     91 C33         4.8000    7.1480   -0.6880 ca        1 MOL      0.329620
     92 O14         6.0170    7.6190   -1.0940 oh        1 MOL     -0.485323
     93 H37         0.5400    5.5330   -2.2510 hn        1 MOL      0.331928
     94 H38        -0.2140    6.8030   -0.6600 h1        1 MOL      0.096148
     95 H39         1.0100    4.9260    1.2860 hc        1 MOL      0.085286
     96 H40         0.6530    6.5930    1.5580 hc        1 MOL      0.085286
     97 H41         3.3670    4.5400    0.8810 ha        1 MOL      0.116188
     98 H42         1.6000    8.1830   -0.5950 ha        1 MOL      0.116188
     99 H43         5.6040    5.3010    0.0830 ha        1 MOL      0.112846
    100 H44         3.7720    8.9180   -1.3510 ha        1 MOL      0.112846
    101 H45         5.8810    8.5720   -1.2120 ho        1 MOL      0.343753
    102 N10        -1.4620    4.1520    1.0250 n         1 MOL     -0.454230
    103 C34        -2.6440    3.3950    1.5130 c3        1 MOL     -0.043908
    104 C35        -3.6350    2.8370    0.4190 c         1 MOL      0.623265
    105 O15        -4.1030    1.6980    0.5710 o         1 MOL     -0.612860
    106 C36        -3.3850    4.2960    2.6100 c3        1 MOL      0.253932
    107 C37        -2.4520    4.9550    3.6440 c3        1 MOL     -0.091173
    108 C38        -4.5270    3.3840    3.2410 c3        1 MOL     -0.467844
    109 C39        -1.3930    4.0110    4.3580 c3        1 MOL     -0.211224
    110 H46        -0.5860    3.6650    1.1590 hn        1 MOL      0.331573
    111 H47        -2.3150    2.4660    1.9770 h1        1 MOL      0.112782
    112 H48        -3.8250    5.1180    2.0450 hc        1 MOL     -0.051634
    113 H49        -3.1270    5.3440    4.4050 hc        1 MOL      0.039760
    114 H50        -1.8270    5.7760    3.3030 hc        1 MOL      0.039760
    115 H51        -4.0420    2.4260    3.3790 hc        1 MOL      0.123419
    116 H52        -4.9460    3.7930    4.1710 hc        1 MOL      0.123419
    117 H53        -5.2790    3.2950    2.4520 hc        1 MOL      0.123419
    118 H54        -0.7000    3.6840    3.5790 hc        1 MOL      0.064731
    119 H55        -0.7380    4.5500    5.0390 hc        1 MOL      0.064731
    120 H56        -1.9100    3.1600    4.8000 hc        1 MOL      0.064731
    121 N11        -3.9340    3.5810   -0.6550 n         1 MOL     -0.422355
    122 C40        -4.6370    3.1760   -1.9180 c3        1 MOL      0.015600
    123 C41        -6.0840    2.6400   -1.6250 c         1 MOL      0.241314
    124 O16        -6.5800    1.9360   -2.5640 o         1 MOL     -0.458779
    125 C42        -4.7550    4.3740   -2.8090 c3        1 MOL      0.258230
    126 O17        -3.5240    4.7480   -3.2530 oh        1 MOL     -0.545716
    127 H57        -3.7070    4.5650   -0.7190 hn        1 MOL      0.326990
    128 H58        -4.1800    2.4980   -2.6350 h1        1 MOL      0.079086
    129 H59        -5.1830    5.2090   -2.2540 h1        1 MOL      0.015129
    130 H60        -5.3180    4.1270   -3.7230 h1        1 MOL      0.015129
    131 H61        -3.0370    3.9190   -3.2300 ho        1 MOL      0.321867
    132 N12        -6.7340    2.9790   -0.4930 n         1 MOL     -0.327613
    133 C43        -8.0370    2.3920   -0.0820 c3        1 MOL      0.278899
    134 C44        -8.0900    0.8360   -0.0920 c         1 MOL      0.501547
    135 O18        -9.1540    0.2380   -0.3350 o         1 MOL     -0.533719
    136 C45        -9.2020    3.0020   -0.7370 c3        1 MOL     -0.268655
    137 H62        -6.2500    3.5820    0.1520 hn        1 MOL      0.235508
    138 H63        -8.1460    2.6120    0.9880 h1        1 MOL      0.015106
    139 H64       -10.1790    2.6470   -0.3970 hc        1 MOL      0.072023
    140 H65        -9.1810    4.0750   -0.5230 hc        1 MOL      0.072023
    141 H66        -9.0890    2.9040   -1.8110 hc        1 MOL      0.072023
    142 N13        -6.9290    0.1770    0.1650 n         1 MOL     -0.555642
    143 C46        -6.8080   -1.2950    0.0420 c3        1 MOL      0.293320
    144 C47        -6.3140   -2.0390    1.2860 c         1 MOL      0.394257
    145 O19        -5.4750   -1.5530    2.0410 o         1 MOL     -0.439090
    146 C48        -5.8430   -1.5400   -1.1590 c3        1 MOL     -0.082970
    147 H67        -6.1070    0.7390    0.3420 hn        1 MOL      0.255897
    148 H68        -7.7840   -1.6970   -0.2210 h1        1 MOL      0.019635
    149 H69        -6.2650   -1.1450   -2.0890 hc        1 MOL      0.029679
    150 H70        -4.8620   -1.0920   -0.9840 hc        1 MOL      0.029679
    151 H71        -5.6410   -2.6030   -1.2630 hc        1 MOL      0.029679
    152 N14        -6.6760   -3.3510    1.4000 n         1 MOL     -0.483908
    153 C49        -6.2490   -4.3120    2.3980 c3        1 MOL      0.251043
    154 C50        -6.4450   -3.8130    3.9030 c         1 MOL      0.341861
    155 O20        -5.6070   -4.1480    4.7390 o         1 MOL     -0.468892
    156 C51        -4.8290   -4.8140    2.1210 c3        1 MOL      0.007064
    157 C52        -4.9650   -5.6480    0.8110 c3        1 MOL      0.018764
    158 C53        -3.7440   -6.3940    0.2500 c         1 MOL      0.535075
    159 O21        -2.9180   -5.9120   -0.5980 o         1 MOL     -0.680984
    160 O22        -3.6050   -7.5660    0.6430 o         1 MOL     -0.680984
    161 H72        -7.3060   -3.7880    0.7480 hn        1 MOL      0.253528
    162 H73        -6.9140   -5.1630    2.2430 h1        1 MOL     -0.023405
    163 H74        -4.4830   -5.5190    2.8750 hc        1 MOL      0.006799
    164 H75        -4.1300   -3.9880    1.9870 hc        1 MOL      0.006799
    165 H76        -5.3230   -5.0350   -0.0160 hc        1 MOL      0.007088
    166 H77        -5.6370   -6.4810    1.0030 hc        1 MOL      0.007088
    167 N15        -7.4100   -2.9410    4.1990 n         1 MOL     -0.282232
    168 C54        -7.3430   -2.0940    5.4090 c3        1 MOL     -0.167833
    169 H78        -7.8900   -1.1680    5.2340 h1        1 MOL      0.097473
    170 H79        -7.7880   -2.6250    6.2510 h1        1 MOL      0.097473
    171 H80        -6.3020   -1.8630    5.6350 h1        1 MOL      0.097473
    172 H81        -8.1560   -2.7090    3.5600 hn        1 MOL      0.238282
    173 Ca1        -0.5890   -4.7900   -0.6290 Ca        1 MOL      1.752035
    174 O23         1.7580   -5.9890   -1.4320 oh        1 MOL     -0.863389
    175 O24         0.8390   -5.5370    1.5260 oh        1 MOL     -0.863389
    176 H82         2.3110   -6.6330   -1.0000 ho        1 MOL      0.427313
    177 H83         0.5250   -6.1800    2.1530 ho        1 MOL      0.427313
    178 H84         2.1330   -5.9030   -2.3070 ho        1 MOL      0.427313
    179 H85         1.3920   -4.9420    2.0290 ho        1 MOL      0.427313
    180 O25        -1.0950   -5.4850   -3.0470 oh        1 MOL     -0.863389
    181 H86        -2.0500   -5.4920   -3.1250 ho        1 MOL      0.427313
    182 H87        -0.7780   -5.2810   -3.9210 ho        1 MOL      0.427313
    183 O26        -1.6500   -3.2430    1.3280 oh        1 MOL     -0.863389
    184 H88        -0.9620   -2.5980    1.4370 ho        1 MOL      0.427313
    185 H89        -2.4380   -2.7990    1.6410 ho        1 MOL      0.427313
    186 O27        -0.8140   -7.5190    0.3610 oh        1 MOL     -0.863389
    187 H90        -0.7040   -8.1270    1.0850 ho        1 MOL      0.427313
    188 H91        -1.7730   -7.4610    0.2440 ho        1 MOL      0.427313
@<TRIPOS>BOND
     1    1    2 1   
     2    1    4 1   
     3    1    5 1   
     4    1    6 1   
     5    2    3 2   
     6    2    7 1   
     7    7    8 1   
     8    7   15 1   
     9    8    9 1   
    10    8   11 1   
    11    8   16 1   
    12    9   10 2   
    13    9   19 1   
    14   11   12 1   
    15   11   17 1   
    16   11   18 1   
    17   12   13 1   
    18   12   14 1   
    19   19   20 1   
    20   19   28 1   
    21   20   21 1   
    22   20   23 1   
    23   20   29 1   
    24   21   22 2   
    25   21   41 1   
    26   23   24 1   
    27   23   30 1   
    28   23   31 1   
    29   24   25 1   
    30   24   32 1   
    31   24   33 1   
    32   25   26 1   
    33   25   34 1   
    34   25   35 1   
    35   26   27 1   
    36   26   36 1   
    37   26   37 1   
    38   27   38 1   
    39   27   39 1   
    40   27   40 1   
    41   41   42 1   
    42   41   49 1   
    43   42   43 1   
    44   42   45 1   
    45   42   50 1   
    46   43   44 2   
    47   43   53 1   
    48   45   46 1   
    49   45   51 1   
    50   45   52 1   
    51   46   47 1   
    52   46   48 1   
    53   53   54 1   
    54   53   57 1   
    55   54   55 1   
    56   54   58 1   
    57   54   59 1   
    58   55   56 2   
    59   55   60 1   
    60   60   61 1   
    61   60   68 1   
    62   61   62 1   
    63   61   64 1   
    64   61   69 1   
    65   62   63 2   
    66   62   74 1   
    67   64   65 1   
    68   64   70 1   
    69   64   71 1   
    70   65   66 1   
    71   65   67 2   
    72   66   72 1   
    73   66   73 1   
    74   74   75 1   
    75   74   78 1   
    76   75   76 1   
    77   75   79 1   
    78   75   80 1   
    79   76   77 2   
    80   76   81 1   
    81   81   82 1   
    82   81   93 1   
    83   82   83 1   
    84   82   85 1   
    85   82   94 1   
    86   83   84 2   
    87   83  102 1   
    88   85   86 1   
    89   85   95 1   
    90   85   96 1   
    91   86   87 ar  
    92   86   88 ar  
    93   87   89 ar  
    94   87   97 1   
    95   88   90 ar  
    96   88   98 1   
    97   89   91 ar  
    98   89   99 1   
    99   90   91 ar  
   100   90  100 1   
   101   91   92 1   
   102   92  101 1   
   103  102  103 1   
   104  102  110 1   
   105  103  104 1   
   106  103  106 1   
   107  103  111 1   
   108  104  105 2   
   109  104  121 1   
   110  106  107 1   
   111  106  108 1   
   112  106  112 1   
   113  107  109 1   
   114  107  113 1   
   115  107  114 1   
   116  108  115 1   
   117  108  116 1   
   118  108  117 1   
   119  109  118 1   
   120  109  119 1   
   121  109  120 1   
   122  121  122 1   
   123  121  127 1   
   124  122  123 1   
   125  122  125 1   
   126  122  128 1   
   127  123  124 2   
   128  123  132 1   
   129  125  126 1   
   130  125  129 1   
   131  125  130 1   
   132  126  131 1   
   133  132  133 1   
   134  132  137 1   
   135  133  134 1   
   136  133  136 1   
   137  133  138 1   
   138  134  135 2   
   139  134  142 1   
   140  136  139 1   
   141  136  140 1   
   142  136  141 1   
   143  142  143 1   
   144  142  147 1   
   145  143  144 1   
   146  143  146 1   
   147  143  148 1   
   148  144  145 2   
   149  144  152 1   
   150  146  149 1   
   151  146  150 1   
   152  146  151 1   
   153  152  153 1   
   154  152  161 1   
   155  153  154 1   
   156  153  156 1   
   157  153  162 1   
   158  154  155 2   
   159  154  167 1   
   160  156  157 1   
   161  156  163 1   
   162  156  164 1   
   163  157  158 1   
   164  157  165 1   
   165  157  166 1   
   166  158  159 1   
   167  158  160 1   
   168  167  168 1   
   169  167  172 1   
   170  168  169 1   
   171  168  170 1   
   172  168  171 1   
   173  174  176 1   
   174  174  178 1   
   175  175  177 1   
   176  175  179 1   
   177  180  181 1   
   178  180  182 1   
   179  183  184 1   
   180  183  185 1   
   181  186  187 1   
   182  186  188 1   
@<TRIPOS>SUBSTRUCTURE
     1 MOL         1 TEMP              0 ****  ****    0 ROOT
