@<TRIPOS>MOLECULE
MOL
  192   187     1     0     0
SMALL
resp


@<TRIPOS>ATOM
      1 C1         -6.3360   -2.1470    5.2230 c3        1 MOL     -0.420718
      2 C2         -5.7630   -1.7310    3.9060 c         1 MOL      0.953993
      3 O1         -5.7870   -2.5090    3.0140 o         1 MOL     -0.622093
      4 H1         -6.4150   -1.2780    5.8760 hc        1 MOL      0.094932
      5 H2         -7.3250   -2.5780    5.0700 hc        1 MOL      0.094932
      6 H3         -5.6850   -2.8890    5.6850 hc        1 MOL      0.094932
      7 N1         -5.3770   -0.4770    3.6850 n         1 MOL     -0.887140
      8 C3         -5.1930    0.0370    2.3000 c3        1 MOL      0.627852
      9 C4         -3.6830   -0.1060    1.9200 c         1 MOL     -0.034493
     10 O2         -3.2890    0.5260    0.9010 o         1 MOL     -0.231502
     11 C5         -5.7900    1.4440    2.0710 c3        1 MOL     -0.114172
     12 C6         -7.2860    1.6470    2.2480 c         1 MOL      0.706896
     13 O3         -7.9180    2.1120    1.2760 o         1 MOL     -0.703837
     14 O4         -7.7580    1.5570    3.3600 o         1 MOL     -0.703837
     15 H4         -5.5970    0.2520    4.3530 hn        1 MOL      0.327729
     16 H5         -5.7490   -0.5930    1.6000 h1        1 MOL     -0.029896
     17 H6         -5.4580    1.7370    1.0740 hc        1 MOL     -0.042798
     18 H7         -5.2450    2.0350    2.8010 hc        1 MOL     -0.042798
     19 N2         -2.8760   -0.9320    2.5850 n         1 MOL     -0.115880
     20 C7         -1.3720   -0.8790    2.5470 c3        1 MOL      0.254424
     21 C8         -0.7540   -2.1690    2.0690 c         1 MOL      0.355965
     22 O5         -1.1160   -3.2790    2.5330 o         1 MOL     -0.522268
     23 C9         -0.8700   -0.5680    3.9410 c3        1 MOL     -0.652134
     24 C10        -0.9830    0.9810    4.4190 c3        1 MOL      0.107721
     25 C11        -0.6120    1.2440    5.8890 c3        1 MOL     -0.148289
     26 C12        -1.5610    0.5190    6.8920 c3        1 MOL      0.181817
     27 N3         -1.5340    0.9950    8.2430 n4        1 MOL     -0.335303
     28 H8         -3.2360   -1.6330    3.2190 hn        1 MOL      0.181391
     29 H9         -1.0430   -0.0760    1.8930 h1        1 MOL     -0.003635
     30 H10         0.1910   -0.8050    3.9100 hc        1 MOL      0.200484
     31 H11        -1.3030   -1.2460    4.6830 hc        1 MOL      0.200484
     32 H12        -1.9850    1.3890    4.3280 hc        1 MOL      0.057187
     33 H13        -0.2180    1.5350    3.8770 hc        1 MOL      0.057187
     34 H14        -0.6350    2.3170    6.1060 hc        1 MOL      0.063783
     35 H15         0.4010    0.8700    6.0270 hc        1 MOL      0.063783
     36 H16        -1.3110   -0.5420    6.9180 hx        1 MOL      0.028697
     37 H17        -2.6140    0.5380    6.6150 hx        1 MOL      0.028697
     38 H18        -0.5670    0.9930    8.5370 hn        1 MOL      0.304466
     39 H19        -1.9450    1.9200    8.3030 hn        1 MOL      0.304466
     40 H20        -1.8710    0.3700    8.9630 hn        1 MOL      0.304466
     41 N4          0.2540   -2.1770    1.1930 n         1 MOL     -0.081065
     42 C13         0.8630   -1.0460    0.5330 c3        1 MOL     -0.008753
     43 C14         1.5000    0.0720    1.3630 c         1 MOL      0.439279
     44 O6          1.0650    1.2400    1.3020 o         1 MOL     -0.466670
     45 C15         0.1980   -0.6490   -0.7780 c3        1 MOL     -0.354447
     46 C16         0.0610   -1.7300   -1.8380 c         1 MOL      0.481075
     47 O7          0.6570   -2.8070   -1.7300 o         1 MOL     -0.622386
     48 O8         -0.7490   -1.4610   -2.7950 o         1 MOL     -0.622386
     49 H21         0.4960   -3.0520    0.7620 hn        1 MOL      0.102265
     50 H22         1.7830   -1.4790    0.1420 h1        1 MOL     -0.006322
     51 H23         0.8050    0.0670   -1.3280 hc        1 MOL      0.193189
     52 H24        -0.7840   -0.2380   -0.5650 hc        1 MOL      0.193189
     53 N5          2.5580   -0.1800    2.1070 n         1 MOL     -0.474784
     54 C17         3.4060   -1.3670    2.0780 c3        1 MOL      0.112007
     55 C18         4.5220   -1.4120    3.0190 c         1 MOL      0.522226
     56 O9          4.6990   -0.4540    3.8490 o         1 MOL     -0.542676
     57 H25         2.9140    0.6770    2.5130 hn        1 MOL      0.335073
     58 H26         3.8960   -1.4110    1.1050 h1        1 MOL      0.026507
     59 H27         2.7530   -2.2260    2.2460 h1        1 MOL      0.026507
     60 N6          5.3880   -2.4430    3.0810 n         1 MOL     -0.558066
     61 C19         5.5540   -3.4720    1.9830 c3        1 MOL      0.256133
     62 C20         6.3650   -2.8150    0.8470 c         1 MOL      0.340007
     63 O10         7.1160   -1.8480    1.1030 o         1 MOL     -0.405305
     64 C21         6.2390   -4.7230    2.5290 c3        1 MOL     -0.062041
     65 C22         7.3920   -4.6160    3.5050 c         1 MOL      0.676891
     66 O11         7.8690   -5.6290    3.9980 o         1 MOL     -0.646578
     67 O12         7.9450   -3.4760    3.6630 o         1 MOL     -0.646578
     68 H28         6.1860   -2.3070    3.6980 hn        1 MOL      0.329141
     69 H29         4.6060   -3.8860    1.6640 h1        1 MOL     -0.043129
     70 H30         6.4740   -5.4100    1.7110 hc        1 MOL     -0.018031
     71 H31         5.4840   -5.2320    3.1270 hc        1 MOL     -0.018031
     72 N7          6.3940   -3.4010   -0.3800 n         1 MOL     -0.189297
     73 C23         7.0640   -2.9840   -1.6710 c3        1 MOL     -0.426113
     74 C24         6.6980   -1.5410   -2.2200 c         1 MOL      0.527042
     75 O13         7.4550   -0.9750   -3.0380 o         1 MOL     -0.526305
     76 H32         5.7860   -4.2080   -0.4450 hn        1 MOL      0.166046
     77 H33         6.7480   -3.7320   -2.3940 h1        1 MOL      0.188920
     78 H34         8.1330   -3.0030   -1.4890 h1        1 MOL      0.188920
     79 N8          5.4740   -1.0450   -1.8220 n         1 MOL     -0.182997
     80 C25         4.8630    0.2400   -2.2330 c3        1 MOL     -0.028851
     81 C26         5.1130    1.3620   -1.1480 c         1 MOL      0.254965
     82 O14         4.8270    1.2030    0.0730 o         1 MOL     -0.427018
     83 C27         3.3800    0.0210   -2.5480 c3        1 MOL      0.356976
     84 C28         3.1780   -1.0000   -3.6570 c3        1 MOL     -0.094474
     85 O15         2.6470    1.1350   -2.9260 oh        1 MOL     -0.540331
     86 H35         4.9600   -1.6070   -1.1610 hn        1 MOL      0.081675
     87 H36         5.3590    0.4770   -3.1790 h1        1 MOL      0.082970
     88 H37         2.8930   -0.4770   -1.7030 h1        1 MOL      0.102907
     89 H38         2.1600    1.3940   -2.1370 ho        1 MOL      0.225230
     90 H39         2.1010   -1.1320   -3.6530 hc        1 MOL      0.006403
     91 H40         3.5910   -0.5400   -4.5600 hc        1 MOL      0.006403
     92 H41         3.6940   -1.9020   -3.3160 hc        1 MOL      0.006403
     93 N9          5.5580    2.4740   -1.5860 n         1 MOL     -0.108567
     94 C29         5.8510    3.5930   -0.6630 c3        1 MOL      0.048765
     95 C30         4.5590    4.2380   -0.0960 c         1 MOL      0.285613
     96 O16         4.5670    4.6410    1.0500 o         1 MOL     -0.508152
     97 C31         6.6700    4.7350   -1.3540 c3        1 MOL     -0.061860
     98 C32         8.0670    4.2670   -1.7730 c3        1 MOL      0.005325
     99 C33         6.7880    5.9120   -0.3580 c3        1 MOL     -0.087617
    100 C34         8.9590    3.7810   -0.6240 c3        1 MOL     -0.148105
    101 H42         5.9480    2.5540   -2.5130 hn        1 MOL      0.167823
    102 H43         6.4190    3.1910    0.1830 h1        1 MOL      0.112476
    103 H44         6.1230    5.1860   -2.1790 hc        1 MOL      0.025486
    104 H45         8.5520    5.0580   -2.3500 hc        1 MOL      0.013613
    105 H46         8.0950    3.4280   -2.4680 hc        1 MOL      0.013613
    106 H47         7.4140    6.6350   -0.8840 hc        1 MOL      0.035955
    107 H48         5.8250    6.4140   -0.2350 hc        1 MOL      0.035955
    108 H49         7.2960    5.7090    0.5810 hc        1 MOL      0.035955
    109 H50         9.0890    4.5590    0.1180 hc        1 MOL      0.053196
    110 H51         8.5490    2.8670   -0.1900 hc        1 MOL      0.053196
    111 H52         9.9240    3.6090   -1.1110 hc        1 MOL      0.053196
    112 N10         3.5080    4.3500   -0.8860 n         1 MOL     -0.114595
    113 C35         2.2450    5.0100   -0.6280 c3        1 MOL      0.184767
    114 C36         1.0770    4.0200   -0.9160 c         1 MOL      0.257964
    115 O17         1.2020    2.9910   -1.5020 o         1 MOL     -0.327927
    116 C37         1.9980    6.2600   -1.5150 c3        1 MOL      0.273379
    117 C38         3.1470    7.2270   -1.5500 c3        1 MOL     -0.253823
    118 O18         0.9530    7.0210   -0.9760 oh        1 MOL     -0.659586
    119 H53         3.7010    4.0210   -1.8160 hn        1 MOL      0.108398
    120 H54         2.1370    5.3840    0.3950 h1        1 MOL      0.081377
    121 H55         1.7660    6.0530   -2.5650 h1        1 MOL      0.014613
    122 H56         0.8380    7.7320   -1.6190 ho        1 MOL      0.417240
    123 H57         2.8140    8.2130   -1.8460 hc        1 MOL      0.059313
    124 H58         3.6480    7.3650   -0.5870 hc        1 MOL      0.059313
    125 H59         3.8980    6.8290   -2.2440 hc        1 MOL      0.059313
    126 N11        -0.0850    4.2560   -0.3540 n         1 MOL     -0.358921
    127 C39        -1.2490    3.3410   -0.2190 c3        1 MOL     -0.042335
    128 C40        -1.8880    3.0500   -1.5710 c         1 MOL      0.407516
    129 O19        -1.7530    3.8290   -2.5150 o         1 MOL     -0.488635
    130 C41        -2.2710    3.8800    0.8290 c3        1 MOL      0.282461
    131 C42        -2.9600    5.2000    0.4270 c3        1 MOL     -0.302866
    132 O20        -1.7050    4.0880    2.1090 oh        1 MOL     -0.647143
    133 H60        -0.2580    5.1080    0.1600 hn        1 MOL      0.311371
    134 H61        -0.8630    2.3780    0.1180 h1        1 MOL      0.081965
    135 H62        -3.0260    3.1080    0.9680 h1        1 MOL      0.031692
    136 H63        -2.3360    4.0900    2.8360 ho        1 MOL      0.403992
    137 H64        -3.7690    5.4800    1.1000 hc        1 MOL      0.082330
    138 H65        -2.3300    6.0780    0.4370 hc        1 MOL      0.082330
    139 H66        -3.2940    5.1790   -0.6140 hc        1 MOL      0.082330
    140 N12        -2.7770    2.0200   -1.6710 n         1 MOL     -0.145525
    141 C43        -3.6380    1.6430   -2.8160 c3        1 MOL     -0.211128
    142 C44        -4.2030    0.1710   -2.8720 c         1 MOL      0.838778
    143 O21        -4.6140   -0.3230   -3.9330 o         1 MOL     -0.670848
    144 C45        -4.8500    2.6320   -3.0540 c3        1 MOL     -0.213512
    145 C46        -6.0580    2.4020   -2.2440 c3        1 MOL      0.157930
    146 C47        -7.1680    3.3540   -2.6670 c3        1 MOL      0.039092
    147 C48        -8.4980    3.1010   -1.8510 c3        1 MOL     -0.005724
    148 N13        -9.4540    4.1770   -1.8430 n4        1 MOL     -0.186453
    149 H67        -2.8890    1.5010   -0.8120 hn        1 MOL      0.086190
    150 H68        -2.9250    1.6650   -3.6470 h1        1 MOL      0.139502
    151 H69        -5.1110    2.6640   -4.1060 hc        1 MOL      0.076009
    152 H70        -4.4890    3.6300   -2.8040 hc        1 MOL      0.076009
    153 H71        -5.8180    2.6040   -1.1990 hc        1 MOL     -0.013590
    154 H72        -6.3750    1.3580   -2.2310 hc        1 MOL     -0.013590
    155 H73        -7.4000    3.1630   -3.7140 hc        1 MOL     -0.016592
    156 H74        -6.8880    4.4030   -2.5840 hc        1 MOL     -0.016592
    157 H75        -8.0930    2.9850   -0.8450 hx        1 MOL      0.072676
    158 H76        -8.9020    2.1610   -2.2310 hx        1 MOL      0.072676
    159 H77        -9.6970    4.5170   -2.7590 hn        1 MOL      0.280173
    160 H78       -10.2860    3.7800   -1.4370 hn        1 MOL      0.280173
    161 H79        -9.2850    4.9870   -1.2710 hn        1 MOL      0.280173
    162 N14        -4.2230   -0.5930   -1.7900 n         1 MOL     -0.572345
    163 C49        -4.5290   -2.0300   -1.7950 c3        1 MOL     -0.132843
    164 C50        -6.0380   -2.3800   -1.6620 c         1 MOL      0.410728
    165 O22        -6.6740   -1.9080   -0.7370 o         1 MOL     -0.508145
    166 C51        -3.5830   -2.6160   -0.7320 c3        1 MOL      0.901161
    167 C52        -3.7990   -4.0440   -0.2680 c3        1 MOL     -0.478318
    168 C53        -3.5470   -4.9820   -1.4080 c         1 MOL      0.725741
    169 O23        -4.5070   -5.2300   -2.2170 o         1 MOL     -0.772086
    170 O24        -2.3960   -5.2490   -1.6320 o         1 MOL     -0.772086
    171 H80        -3.7880   -0.1410   -0.9960 hn        1 MOL      0.275399
    172 H81        -4.3100   -2.5080   -2.7500 h1        1 MOL      0.153284
    173 H82        -3.6360   -2.0000    0.1660 hc        1 MOL     -0.260896
    174 H83        -2.5350   -2.4670   -1.0100 hc        1 MOL     -0.260896
    175 H84        -4.8450   -4.1420    0.0170 hc        1 MOL      0.108721
    176 H85        -3.1020   -4.2520    0.5530 hc        1 MOL      0.108721
    177 N15        -6.6580   -3.1950   -2.4980 n         1 MOL     -0.135867
    178 C54        -8.0230   -3.6670   -2.3370 c3        1 MOL     -0.325395
    179 H86        -8.1890   -4.5260   -2.9880 h1        1 MOL      0.125025
    180 H87        -8.1870   -3.9600   -1.3000 h1        1 MOL      0.125025
    181 H88        -8.7180   -2.8710   -2.6030 h1        1 MOL      0.125025
    182 H89        -6.0960   -3.5160   -3.2670 hn        1 MOL      0.255717
    183 Ca1        -0.0220   -5.2950   -2.4020 Ca        1 MOL      1.662835
    184 O25        -1.4430   -4.7410   -4.6700 oh        1 MOL     -0.834125
    185 H90        -1.7960   -3.8580   -4.7900 ho        1 MOL      0.417522
    186 H91        -1.4640   -5.1260   -5.5420 ho        1 MOL      0.417522
    187 O26         2.1410   -4.5650   -3.9030 oh        1 MOL     -0.834125
    188 H92         2.4560   -4.0400   -4.6500 ho        1 MOL      0.417522
    189 H93         2.8910   -5.0980   -3.6580 ho        1 MOL      0.417522
    190 O27         1.1480   -7.1440   -4.2080 oh        1 MOL     -0.834125
    191 H94         0.6510   -7.8780   -3.8520 ho        1 MOL      0.417522
    192 H95         1.4680   -7.4580   -5.0540 ho        1 MOL      0.417522
@<TRIPOS>BOND
     1    1    2 1   
     2    1    4 1   
     3    1    5 1   
     4    1    6 1   
     5    2    3 2   
     6    2    7 1   
     7    7    8 1   
     8    7   15 1   
     9    8    9 1   
    10    8   11 1   
    11    8   16 1   
    12    9   10 2   
    13    9   19 1   
    14   11   12 1   
    15   11   17 1   
    16   11   18 1   
    17   12   13 1   
    18   12   14 1   
    19   19   20 1   
    20   19   28 1   
    21   20   21 1   
    22   20   23 1   
    23   20   29 1   
    24   21   22 2   
    25   21   41 1   
    26   23   24 1   
    27   23   30 1   
    28   23   31 1   
    29   24   25 1   
    30   24   32 1   
    31   24   33 1   
    32   25   26 1   
    33   25   34 1   
    34   25   35 1   
    35   26   27 1   
    36   26   36 1   
    37   26   37 1   
    38   27   38 1   
    39   27   39 1   
    40   27   40 1   
    41   41   42 1   
    42   41   49 1   
    43   42   43 1   
    44   42   45 1   
    45   42   50 1   
    46   43   44 2   
    47   43   53 1   
    48   45   46 1   
    49   45   51 1   
    50   45   52 1   
    51   46   47 1   
    52   46   48 1   
    53   53   54 1   
    54   53   57 1   
    55   54   55 1   
    56   54   58 1   
    57   54   59 1   
    58   55   56 2   
    59   55   60 1   
    60   60   61 1   
    61   60   68 1   
    62   61   62 1   
    63   61   64 1   
    64   61   69 1   
    65   62   63 2   
    66   62   72 1   
    67   64   65 1   
    68   64   70 1   
    69   64   71 1   
    70   65   66 1   
    71   65   67 1   
    72   72   73 1   
    73   72   76 1   
    74   73   74 1   
    75   73   77 1   
    76   73   78 1   
    77   74   75 2   
    78   74   79 1   
    79   79   80 1   
    80   79   86 1   
    81   80   81 1   
    82   80   83 1   
    83   80   87 1   
    84   81   82 2   
    85   81   93 1   
    86   83   84 1   
    87   83   85 1   
    88   83   88 1   
    89   84   90 1   
    90   84   91 1   
    91   84   92 1   
    92   85   89 1   
    93   93   94 1   
    94   93  101 1   
    95   94   95 1   
    96   94   97 1   
    97   94  102 1   
    98   95   96 2   
    99   95  112 1   
   100   97   98 1   
   101   97   99 1   
   102   97  103 1   
   103   98  100 1   
   104   98  104 1   
   105   98  105 1   
   106   99  106 1   
   107   99  107 1   
   108   99  108 1   
   109  100  109 1   
   110  100  110 1   
   111  100  111 1   
   112  112  113 1   
   113  112  119 1   
   114  113  114 1   
   115  113  116 1   
   116  113  120 1   
   117  114  115 2   
   118  114  126 1   
   119  116  117 1   
   120  116  118 1   
   121  116  121 1   
   122  117  123 1   
   123  117  124 1   
   124  117  125 1   
   125  118  122 1   
   126  126  127 1   
   127  126  133 1   
   128  127  128 1   
   129  127  130 1   
   130  127  134 1   
   131  128  129 2   
   132  128  140 1   
   133  130  131 1   
   134  130  132 1   
   135  130  135 1   
   136  131  137 1   
   137  131  138 1   
   138  131  139 1   
   139  132  136 1   
   140  140  141 1   
   141  140  149 1   
   142  141  142 1   
   143  141  144 1   
   144  141  150 1   
   145  142  143 2   
   146  142  162 1   
   147  144  145 1   
   148  144  151 1   
   149  144  152 1   
   150  145  146 1   
   151  145  153 1   
   152  145  154 1   
   153  146  147 1   
   154  146  155 1   
   155  146  156 1   
   156  147  148 1   
   157  147  157 1   
   158  147  158 1   
   159  148  159 1   
   160  148  160 1   
   161  148  161 1   
   162  162  163 1   
   163  162  171 1   
   164  163  164 1   
   165  163  166 1   
   166  163  172 1   
   167  164  165 2   
   168  164  177 1   
   169  166  167 1   
   170  166  173 1   
   171  166  174 1   
   172  167  168 1   
   173  167  175 1   
   174  167  176 1   
   175  168  169 1   
   176  168  170 1   
   177  177  178 1   
   178  177  182 1   
   179  178  179 1   
   180  178  180 1   
   181  178  181 1   
   182  184  185 1   
   183  184  186 1   
   184  187  188 1   
   185  187  189 1   
   186  190  191 1   
   187  190  192 1   
@<TRIPOS>SUBSTRUCTURE
     1 MOL         1 TEMP              0 ****  ****    0 ROOT
