@<TRIPOS>MOLECULE
MOL
  178   175     1     0     0
SMALL
resp


@<TRIPOS>ATOM
      1 C1          0.9860    6.2090   -2.6530 c3        1 MOL     -0.416792
      2 C2          2.3010    6.1880   -1.8380 c         1 MOL      0.762123
      3 O1          2.3080    6.5920   -0.7020 o         1 MOL     -0.593981
      4 H1          1.2190    6.2120   -3.7170 hc        1 MOL      0.093916
      5 H2          0.3950    5.3250   -2.4130 hc        1 MOL      0.093916
      6 H3          0.4170    7.1060   -2.4040 hc        1 MOL      0.093916
      7 N1          3.3330    5.6520   -2.4460 n         1 MOL     -0.665918
      8 C3          4.6740    5.4160   -1.8500 c3        1 MOL      0.283176
      9 C4          4.5520    4.2570   -0.8770 c         1 MOL      0.677837
     10 O2          3.7140    3.3680   -1.1280 o         1 MOL     -0.647886
     11 C5          5.7240    5.1030   -2.9180 c3        1 MOL     -0.317822
     12 C6          7.1530    5.2790   -2.2860 c         1 MOL      0.746493
     13 O3          8.1040    5.2780   -3.0430 o         1 MOL     -0.712016
     14 O4          7.3640    5.4750   -1.0430 o         1 MOL     -0.712016
     15 H4          3.1980    5.4250   -3.4270 hn        1 MOL      0.314336
     16 H5          5.0310    6.2970   -1.3220 h1        1 MOL      0.014380
     17 H6          5.5520    5.8490   -3.6990 hc        1 MOL      0.051217
     18 H7          5.6730    4.0810   -3.3050 hc        1 MOL      0.051217
     19 N2          5.2140    4.3890    0.2740 n         1 MOL     -0.652537
     20 C7          5.2200    3.4520    1.3690 c3        1 MOL      0.432972
     21 C8          3.9770    3.5320    2.2750 c         1 MOL      0.523353
     22 O5          3.2810    4.5370    2.3480 o         1 MOL     -0.542536
     23 C9          6.5250    3.6810    2.1580 c3        1 MOL     -0.362966
     24 H8          5.9290    5.0990    0.3030 hn        1 MOL      0.297698
     25 H9          5.2730    2.4620    0.9130 h1        1 MOL      0.045016
     26 H10         7.3560    3.1180    1.7130 hc        1 MOL      0.086939
     27 H11         6.7400    4.7440    2.2350 hc        1 MOL      0.086939
     28 H12         6.5050    3.2170    3.1460 hc        1 MOL      0.086939
     29 N3          3.6970    2.5320    3.1120 n         1 MOL     -0.407922
     30 C10         4.3430    1.2550    3.4550 c3        1 MOL      0.164845
     31 C11         4.2990    0.1910    2.3230 c         1 MOL      0.398566
     32 O6          3.5080    0.2470    1.3960 o         1 MOL     -0.540507
     33 C12         3.9190    0.6890    4.7930 c3        1 MOL     -0.323247
     34 C13         2.4160    0.6930    5.0680 c         1 MOL      0.823784
     35 O7          1.6330    0.7970    4.1400 o         1 MOL     -0.719175
     36 O8          1.9850    0.4430    6.2010 o         1 MOL     -0.719175
     37 H13         2.8160    2.6030    3.5980 hn        1 MOL      0.235273
     38 H14         5.3820    1.5370    3.6350 h1        1 MOL      0.020455
     39 H15         4.3080    1.3760    5.5450 hc        1 MOL      0.055569
     40 H16         4.3450   -0.3000    4.9960 hc        1 MOL      0.055569
     41 N4          5.1610   -0.8400    2.4100 n         1 MOL     -0.570976
     42 C14         5.5510   -1.7190    1.3440 c3        1 MOL      0.374685
     43 C15         6.8870   -1.3860    0.7030 c         1 MOL      0.442886
     44 O9          7.3430   -0.2580    0.7310 o         1 MOL     -0.512654
     45 H17         5.7860   -0.8390    3.2010 hn        1 MOL      0.301521
     46 H18         4.7200   -1.8250    0.6620 h1        1 MOL     -0.023668
     47 H19         5.6210   -2.7470    1.7090 h1        1 MOL     -0.023668
     48 N5          7.4560   -2.2540   -0.1000 n         1 MOL     -0.475280
     49 C16         7.0770   -3.7260   -0.3890 c3        1 MOL     -0.029654
     50 C17         6.0060   -3.9420   -1.4220 c         1 MOL      0.389419
     51 O10         5.7940   -5.1200   -1.7850 o         1 MOL     -0.481189
     52 C18         8.4070   -4.4330   -0.8050 c3        1 MOL     -0.253438
     53 C19         8.8440   -4.0860   -2.2450 c         1 MOL      0.663302
     54 N6          9.3120   -5.0920   -2.8720 n         1 MOL     -0.713113
     55 O11         8.7830   -2.9340   -2.7200 o         1 MOL     -0.548765
     56 H20         8.3290   -1.9070   -0.4550 hn        1 MOL      0.318123
     57 H21         6.7100   -4.1730    0.5350 h1        1 MOL      0.126071
     58 H22         8.1520   -5.4810   -0.6710 hc        1 MOL      0.083434
     59 H23         9.2830   -4.3180   -0.1600 hc        1 MOL      0.083434
     60 H24         9.3820   -5.9900   -2.4090 hn        1 MOL      0.349562
     61 H25         9.7260   -4.9830   -3.7820 hn        1 MOL      0.349562
     62 N7          5.3870   -2.8470   -1.9160 n         1 MOL     -0.119581
     63 C20         4.2900   -2.8600   -2.9080 c3        1 MOL     -0.248173
     64 C21         2.9670   -3.4190   -2.5020 c         1 MOL      0.654697
     65 O12         2.1830   -3.9080   -3.3100 o         1 MOL     -0.572708
     66 H26         5.7360   -1.9720   -1.5640 hn        1 MOL      0.239884
     67 H27         4.5880   -3.4220   -3.8030 h1        1 MOL      0.118709
     68 H28         4.0800   -1.8150   -3.1310 h1        1 MOL      0.118709
     69 N8          2.8060   -3.4690   -1.2060 n         1 MOL     -0.345976
     70 C22         1.6920   -4.1610   -0.6280 c3        1 MOL     -0.068312
     71 C23         0.5680   -3.2320   -0.2830 c         1 MOL      0.663480
     72 O13         0.7540   -2.1140    0.1950 o         1 MOL     -0.616111
     73 C24         2.1210   -4.9880    0.5980 c3        1 MOL      0.361046
     74 C25         2.7880   -6.3130    0.2160 c3        1 MOL     -0.366350
     75 O14         2.9430   -4.2140    1.4840 oh        1 MOL     -0.584910
     76 H29         3.4620   -2.9610   -0.6360 hn        1 MOL      0.171124
     77 H30         1.2670   -4.9060   -1.3090 h1        1 MOL      0.120072
     78 H31         1.2030   -5.2150    1.1530 h1        1 MOL     -0.011030
     79 H32         3.1030   -4.8570    2.1770 ho        1 MOL      0.368229
     80 H33         2.0450   -6.8770   -0.3500 hc        1 MOL      0.086191
     81 H34         3.6740   -6.0810   -0.3820 hc        1 MOL      0.086191
     82 H35         2.9810   -6.8270    1.1600 hc        1 MOL      0.086191
     83 N9         -0.6490   -3.7710   -0.4820 n         1 MOL     -0.396779
     84 C26        -1.9990   -3.1510   -0.4290 c3        1 MOL     -0.314019
     85 C27        -2.6270   -3.2770    1.0290 c         1 MOL      0.659750
     86 O15        -2.6650   -4.3540    1.5960 o         1 MOL     -0.592527
     87 C28        -2.7960   -3.8630   -1.4930 c3        1 MOL      0.037314
     88 C29        -4.2810   -3.5100   -1.5700 c3        1 MOL      0.326082
     89 C30        -2.2090   -3.6350   -2.9000 c3        1 MOL     -0.366935
     90 C31        -5.2400   -4.5680   -2.2780 c3        1 MOL      0.021390
     91 H36        -0.5590   -4.6680   -0.9400 hn        1 MOL      0.228028
     92 H37        -1.8360   -2.1390   -0.8000 h1        1 MOL      0.275332
     93 H38        -2.8150   -4.9220   -1.2650 hc        1 MOL      0.044833
     94 H39        -4.3440   -2.5390   -2.0560 hc        1 MOL     -0.116491
     95 H40        -4.8100   -3.4390   -0.6220 hc        1 MOL     -0.116491
     96 H41        -2.2480   -2.5710   -3.1280 hc        1 MOL      0.092185
     97 H42        -1.1880   -4.0120   -2.9540 hc        1 MOL      0.092185
     98 H43        -2.8140   -4.0160   -3.7180 hc        1 MOL      0.092185
     99 H44        -6.2480   -4.1710   -2.3780 hc        1 MOL     -0.030119
    100 H45        -4.8440   -4.6690   -3.2890 hc        1 MOL     -0.030119
    101 H46        -5.1890   -5.5290   -1.7660 hc        1 MOL     -0.030119
    102 N10        -3.0460   -2.1590    1.6510 n         1 MOL     -0.236023
    103 C32        -3.9260   -1.9790    2.7800 c3        1 MOL      0.020893
    104 C33        -5.3110   -1.3090    2.4290 c         1 MOL      0.455003
    105 O16        -6.1800   -1.3690    3.2400 o         1 MOL     -0.552464
    106 C34        -3.1530   -1.2880    3.9000 c3        1 MOL     -0.090836
    107 C35        -2.3130   -0.0420    3.4000 c         1 MOL      0.710170
    108 O17        -2.8310    1.0960    3.3200 o         1 MOL     -0.686506
    109 O18        -1.1250   -0.2070    3.1280 o         1 MOL     -0.686506
    110 H47        -2.5780   -1.3140    1.3340 hn        1 MOL      0.049908
    111 H48        -4.2430   -2.9380    3.1770 h1        1 MOL      0.083231
    112 H49        -2.4730   -1.9890    4.3670 hc        1 MOL      0.014811
    113 H50        -3.7830   -0.8940    4.6970 hc        1 MOL      0.014811
    114 N11        -5.5910   -0.7190    1.2620 n         1 MOL     -0.425259
    115 C36        -6.9520   -0.2430    0.9400 c3        1 MOL      0.464803
    116 C37        -6.7650    1.0140    0.0210 c         1 MOL      0.104481
    117 O19        -7.1040    0.8930   -1.1970 o         1 MOL     -0.482667
    118 C38        -7.8550   -1.3600    0.3830 c3        1 MOL     -0.463287
    119 C39        -9.3550   -0.9890    0.2920 ca        1 MOL      0.256530
    120 C40       -10.0490   -0.4550    1.3610 ca        1 MOL     -0.247700
    121 C41       -10.0020   -1.2550   -0.8820 ca        1 MOL     -0.247700
    122 C42       -11.4180   -0.3400    1.2560 ca        1 MOL     -0.051352
    123 C43       -11.4570   -1.1310   -1.0100 ca        1 MOL     -0.051352
    124 C44       -12.2080   -0.8260    0.1560 ca        1 MOL     -0.219944
    125 H51        -4.8020   -0.5560    0.6530 hn        1 MOL      0.199042
    126 H52        -7.4170    0.0370    1.8810 h1        1 MOL     -0.020758
    127 H53        -7.7540   -2.2520    1.0130 hc        1 MOL      0.150990
    128 H54        -7.4700   -1.5380   -0.6170 hc        1 MOL      0.150990
    129 H55        -9.5340   -0.2230    2.2760 ha        1 MOL      0.148318
    130 H56        -9.3910   -1.5930   -1.7100 ha        1 MOL      0.148318
    131 H57       -11.8600   -0.0880    2.2190 ha        1 MOL      0.082121
    132 H58       -11.9830   -1.4640   -1.8920 ha        1 MOL      0.082121
    133 H59       -13.2840   -0.8750    0.1480 ha        1 MOL      0.129831
    134 N12        -6.0830    2.0730    0.4340 n         1 MOL      0.159952
    135 C45        -5.9160    3.2730   -0.4120 c3        1 MOL     -0.021071
    136 C46        -5.1220    3.0530   -1.6920 c         1 MOL      0.168652
    137 O20        -5.3470    3.8540   -2.6480 o         1 MOL     -0.478894
    138 C47        -5.4160    4.3290    0.4900 c3        1 MOL     -0.047644
    139 C48        -5.8720    3.9780    1.9160 c3        1 MOL     -0.349621
    140 C49        -6.0840    2.4500    1.8180 c3        1 MOL      0.150589
    141 H60        -6.9020    3.5280   -0.7980 h1        1 MOL      0.058301
    142 H61        -4.3210    4.3040    0.4240 hc        1 MOL      0.078410
    143 H62        -5.6310    5.3710    0.2540 hc        1 MOL      0.078410
    144 H63        -5.0450    4.1470    2.6130 hc        1 MOL      0.109593
    145 H64        -6.8160    4.4150    2.2370 hc        1 MOL      0.109593
    146 H65        -5.2280    1.9190    2.2340 h1        1 MOL      0.008247
    147 H66        -7.0420    2.2110    2.2900 h1        1 MOL      0.008247
    148 N13        -4.3280    1.9870   -1.7960 n         1 MOL      0.038317
    149 C50        -3.7310    1.6090   -3.0430 c3        1 MOL     -0.123526
    150 C51        -4.7030    1.3750   -4.1770 c         1 MOL      0.502829
    151 O21        -4.4350    1.8460   -5.2800 o         1 MOL     -0.555768
    152 C52        -2.8520    0.3440   -2.9450 c3        1 MOL      0.230048
    153 C53        -1.6090    0.3050   -1.9670 c3        1 MOL     -0.107633
    154 C54        -1.9680    0.4470   -0.4920 c         1 MOL      0.517721
    155 O22        -1.0610    0.9520    0.2200 o         1 MOL     -0.585005
    156 O23        -3.0950    0.0390   -0.1000 o         1 MOL     -0.585005
    157 H67        -4.1330    1.4450   -0.9720 hn        1 MOL      0.152744
    158 H68        -3.0330    2.4110   -3.3030 h1        1 MOL      0.068850
    159 H69        -2.4650    0.2110   -3.9590 hc        1 MOL     -0.070848
    160 H70        -3.4850   -0.5060   -2.6920 hc        1 MOL     -0.070848
    161 H71        -0.9490    1.1070   -2.2820 hc        1 MOL      0.012832
    162 H72        -1.1240   -0.6300   -2.2480 hc        1 MOL      0.012832
    163 N14        -5.8310    0.7150   -3.9120 n         1 MOL     -0.261035
    164 C55        -6.9700    0.5770   -4.8830 c3        1 MOL     -0.305398
    165 H73        -6.5860    0.6160   -5.9020 h1        1 MOL      0.118253
    166 H74        -7.4710   -0.3770   -4.7210 h1        1 MOL      0.118253
    167 H75        -7.6790    1.3910   -4.7310 h1        1 MOL      0.118253
    168 H76        -6.0160    0.3550   -2.9860 hn        1 MOL      0.268549
    169 Ca1         0.8660    0.2540    1.7150 Ca        1 MOL      1.773765
    170 O24         1.6880    1.4300   -0.7800 oh        1 MOL     -0.915406
    171 H77         2.4160    2.0550   -0.7650 ho        1 MOL      0.435443
    172 H78         1.4260    1.3940   -1.6990 ho        1 MOL      0.435443
    173 O25         2.0170   -1.8740    2.8540 oh        1 MOL     -0.915406
    174 H79         2.9380   -2.1190    2.8290 ho        1 MOL      0.435443
    175 H80         1.5650   -2.6680    3.1500 ho        1 MOL      0.435443
    176 O26         0.8710    2.9960    2.0070 oh        1 MOL     -0.915406
    177 H81         0.1020    3.5200    2.2550 ho        1 MOL      0.435443
    178 H82         1.6000    3.6250    2.0140 ho        1 MOL      0.435443
@<TRIPOS>BOND
     1    1    2 1   
     2    1    4 1   
     3    1    5 1   
     4    1    6 1   
     5    2    3 2   
     6    2    7 1   
     7    7    8 1   
     8    7   15 1   
     9    8    9 1   
    10    8   11 1   
    11    8   16 1   
    12    9   10 2   
    13    9   19 1   
    14   11   12 1   
    15   11   17 1   
    16   11   18 1   
    17   12   13 1   
    18   12   14 1   
    19   19   20 1   
    20   19   24 1   
    21   20   21 1   
    22   20   23 1   
    23   20   25 1   
    24   21   22 2   
    25   21   29 1   
    26   23   26 1   
    27   23   27 1   
    28   23   28 1   
    29   29   30 1   
    30   29   37 1   
    31   30   31 1   
    32   30   33 1   
    33   30   38 1   
    34   31   32 2   
    35   31   41 1   
    36   33   34 1   
    37   33   39 1   
    38   33   40 1   
    39   34   35 1   
    40   34   36 1   
    41   41   42 1   
    42   41   45 1   
    43   42   43 1   
    44   42   46 1   
    45   42   47 1   
    46   43   44 2   
    47   43   48 1   
    48   48   49 1   
    49   48   56 1   
    50   49   50 1   
    51   49   52 1   
    52   49   57 1   
    53   50   51 2   
    54   50   62 1   
    55   52   53 1   
    56   52   58 1   
    57   52   59 1   
    58   53   54 1   
    59   53   55 2   
    60   54   60 1   
    61   54   61 1   
    62   62   63 1   
    63   62   66 1   
    64   63   64 1   
    65   63   67 1   
    66   63   68 1   
    67   64   65 2   
    68   64   69 1   
    69   69   70 1   
    70   69   76 1   
    71   70   71 1   
    72   70   73 1   
    73   70   77 1   
    74   71   72 2   
    75   71   83 1   
    76   73   74 1   
    77   73   75 1   
    78   73   78 1   
    79   74   80 1   
    80   74   81 1   
    81   74   82 1   
    82   75   79 1   
    83   83   84 1   
    84   83   91 1   
    85   84   85 1   
    86   84   87 1   
    87   84   92 1   
    88   85   86 2   
    89   85  102 1   
    90   87   88 1   
    91   87   89 1   
    92   87   93 1   
    93   88   90 1   
    94   88   94 1   
    95   88   95 1   
    96   89   96 1   
    97   89   97 1   
    98   89   98 1   
    99   90   99 1   
   100   90  100 1   
   101   90  101 1   
   102  102  103 1   
   103  102  110 1   
   104  103  104 1   
   105  103  106 1   
   106  103  111 1   
   107  104  105 2   
   108  104  114 1   
   109  106  107 1   
   110  106  112 1   
   111  106  113 1   
   112  107  108 1   
   113  107  109 1   
   114  114  115 1   
   115  114  125 1   
   116  115  116 1   
   117  115  118 1   
   118  115  126 1   
   119  116  117 2   
   120  116  134 1   
   121  118  119 1   
   122  118  127 1   
   123  118  128 1   
   124  119  120 ar  
   125  119  121 ar  
   126  120  122 ar  
   127  120  129 1   
   128  121  123 ar  
   129  121  130 1   
   130  122  124 ar  
   131  122  131 1   
   132  123  124 ar  
   133  123  132 1   
   134  124  133 1   
   135  134  135 1   
   136  134  140 1   
   137  135  136 1   
   138  135  138 1   
   139  135  141 1   
   140  136  137 2   
   141  136  148 1   
   142  138  139 1   
   143  138  142 1   
   144  138  143 1   
   145  139  140 1   
   146  139  144 1   
   147  139  145 1   
   148  140  146 1   
   149  140  147 1   
   150  148  149 1   
   151  148  157 1   
   152  149  150 1   
   153  149  152 1   
   154  149  158 1   
   155  150  151 2   
   156  150  163 1   
   157  152  153 1   
   158  152  159 1   
   159  152  160 1   
   160  153  154 1   
   161  153  161 1   
   162  153  162 1   
   163  154  155 1   
   164  154  156 1   
   165  163  164 1   
   166  163  168 1   
   167  164  165 1   
   168  164  166 1   
   169  164  167 1   
   170  170  171 1   
   171  170  172 1   
   172  173  174 1   
   173  173  175 1   
   174  176  177 1   
   175  176  178 1   
@<TRIPOS>SUBSTRUCTURE
     1 MOL         1 TEMP              0 ****  ****    0 ROOT
