@<TRIPOS>MOLECULE
MOL
  189   185     1     0     0
SMALL
resp


@<TRIPOS>ATOM
      1 C1         -6.5080   -4.3070    3.2130 c3        1 MOL     -0.188535
      2 C2         -5.2260   -3.8630    2.4110 c         1 MOL      0.595856
      3 O1         -4.6960   -2.7490    2.6520 o         1 MOL     -0.475219
      4 H1         -6.2640   -4.3840    4.2730 hc        1 MOL      0.032239
      5 H2         -7.2980   -3.5680    3.0760 hc        1 MOL      0.032239
      6 H3         -6.8500   -5.2750    2.8480 hc        1 MOL      0.032239
      7 N1         -4.7810   -4.6670    1.4150 n         1 MOL     -0.699705
      8 C3         -3.8000   -4.3230    0.3660 c3        1 MOL     -0.028622
      9 C4         -2.2950   -4.2830    0.7080 c         1 MOL      0.615759
     10 O2         -1.5580   -3.5110    0.1860 o         1 MOL     -0.531543
     11 C5         -4.2540   -3.1480   -0.5270 c3        1 MOL     -0.352188
     12 C6         -5.7870   -2.9400   -0.6930 c         1 MOL      0.923327
     13 O3         -6.3710   -1.8610   -0.4150 o         1 MOL     -0.785836
     14 O4         -6.4540   -3.8470   -1.2050 o         1 MOL     -0.785836
     15 H4         -5.3750   -5.4630    1.2500 hn        1 MOL      0.375373
     16 H5         -3.8970   -5.2400   -0.2060 h1        1 MOL      0.104523
     17 H6         -3.7940   -3.1270   -1.5180 hc        1 MOL      0.128630
     18 H7         -3.9980   -2.1920   -0.0710 hc        1 MOL      0.128630
     19 N2         -1.9290   -4.9910    1.7580 n         1 MOL     -0.553595
     20 C7         -0.6110   -4.7920    2.4490 c3        1 MOL      0.056171
     21 C8          0.2930   -5.9820    2.0650 c         1 MOL      0.427454
     22 O5         -0.0190   -7.1540    2.3780 o         1 MOL     -0.581541
     23 C9         -0.7620   -4.6990    3.9780 c3        1 MOL      0.168336
     24 C10        -1.6550   -3.4890    4.3510 c3        1 MOL      0.008212
     25 C11         0.6600   -4.6390    4.6800 c3        1 MOL     -0.199042
     26 C12        -1.9320   -3.2460    5.8500 c3        1 MOL     -0.191553
     27 H8         -2.5460   -5.7220    2.0920 hn        1 MOL      0.332318
     28 H9         -0.1580   -3.8480    2.1300 h1        1 MOL      0.177013
     29 H10        -1.2780   -5.6520    4.1370 hc        1 MOL     -0.050259
     30 H11        -2.6480   -3.7120    3.9580 hc        1 MOL      0.044247
     31 H12        -1.2750   -2.5770    3.9050 hc        1 MOL      0.044247
     32 H13         1.4200   -5.3060    4.2750 hc        1 MOL      0.040333
     33 H14         1.0260   -3.6150    4.5980 hc        1 MOL      0.040333
     34 H15         0.4500   -4.8610    5.7190 hc        1 MOL      0.040333
     35 H16        -2.8550   -2.6810    5.9380 hc        1 MOL      0.041849
     36 H17        -2.0980   -4.1950    6.3500 hc        1 MOL      0.041849
     37 H18        -1.0720   -2.7770    6.3230 hc        1 MOL      0.041849
     38 N3          1.3590   -5.7910    1.2760 n         1 MOL     -0.291695
     39 C13         1.8790   -4.5490    0.7070 c3        1 MOL      0.066071
     40 C14         2.6660   -4.7460   -0.6020 c         1 MOL      0.357069
     41 O6          3.2830   -5.8110   -0.7480 o         1 MOL     -0.507454
     42 C15         2.6980   -3.7630    1.7060 c3        1 MOL     -0.049759
     43 C16         3.5650   -2.6470    1.0590 c         1 MOL      0.591665
     44 O7          4.7850   -2.7450    0.8890 o         1 MOL     -0.645303
     45 O8          2.9440   -1.5990    0.6680 o         1 MOL     -0.645303
     46 H19         1.9150   -6.6150    1.1170 hn        1 MOL      0.246115
     47 H20         0.9820   -3.9750    0.4680 h1        1 MOL     -0.020932
     48 H21         3.2930   -4.4950    2.2490 hc        1 MOL      0.003030
     49 H22         2.0350   -3.3400    2.4640 hc        1 MOL      0.003030
     50 N4          2.5750   -3.8390   -1.5970 n         1 MOL     -0.151293
     51 C17         2.9080   -4.0390   -3.0160 c3        1 MOL     -0.296263
     52 C18         4.3590   -3.7180   -3.4520 c         1 MOL      0.683581
     53 O9          4.7660   -4.3590   -4.4280 o         1 MOL     -0.597912
     54 H23         1.9500   -3.0850   -1.3620 hn        1 MOL      0.241153
     55 H24         2.1930   -3.4610   -3.5920 h1        1 MOL      0.124967
     56 H25         2.6840   -5.0760   -3.2650 h1        1 MOL      0.124967
     57 N5          5.1350   -2.8780   -2.7360 n         1 MOL     -0.483535
     58 C19         6.4300   -2.3600   -3.2290 c3        1 MOL     -0.097072
     59 C20         7.4750   -2.1640   -2.1000 c         1 MOL      0.443534
     60 O10         8.6930   -1.9630   -2.4040 o         1 MOL     -0.608203
     61 C21         6.1100   -0.9950   -3.9760 c3        1 MOL     -0.002192
     62 C22         5.0840   -0.1310   -3.2830 c         1 MOL      0.662869
     63 O11         5.5960    0.5410   -2.3150 o         1 MOL     -0.679440
     64 O12         3.8590   -0.1460   -3.5760 o         1 MOL     -0.679440
     65 H26         4.8030   -2.3400   -1.9500 hn        1 MOL      0.349491
     66 H27         6.8660   -3.1060   -3.8840 h1        1 MOL      0.131425
     67 H28         5.8260   -1.1410   -5.0250 hc        1 MOL     -0.028589
     68 H29         7.0350   -0.4320   -4.1000 hc        1 MOL     -0.028589
     69 N6          7.1260   -2.0970   -0.8630 n         1 MOL     -0.111056
     70 C23         8.0490   -1.6870    0.2320 c3        1 MOL     -0.242911
     71 C24         8.4950   -0.2510    0.3220 c         1 MOL      0.625760
     72 O13         9.3320    0.1090    1.1340 o         1 MOL     -0.628456
     73 H30         6.1970   -2.2840   -0.5290 hn        1 MOL      0.172476
     74 H31         8.9650   -2.2760    0.2720 h1        1 MOL      0.098668
     75 H32         7.5060   -1.8840    1.1610 h1        1 MOL      0.098668
     76 N7          7.8080    0.5990   -0.4400 n         1 MOL     -0.109173
     77 C25         7.9180    2.0220   -0.6670 c3        1 MOL     -0.022113
     78 C26         7.5660    2.9480    0.5360 c         1 MOL      0.510845
     79 O14         8.0200    4.0180    0.7590 o         1 MOL     -0.512433
     80 C27         9.1570    2.3540   -1.5560 c3        1 MOL     -0.012810
     81 C28         9.1990    1.6510   -2.8860 c3        1 MOL     -0.038505
     82 C29        10.3730    2.1520   -3.7260 c         1 MOL      0.616041
     83 N8         10.9340    1.3770   -4.6220 n         1 MOL     -0.799687
     84 O15        10.9710    3.2030   -3.4490 o         1 MOL     -0.574801
     85 H33         6.9710    0.2110   -0.8620 hn        1 MOL      0.106816
     86 H34         7.0480    2.1940   -1.3070 h1        1 MOL      0.097254
     87 H35        10.0090    2.0130   -0.9770 hc        1 MOL      0.008101
     88 H36         9.1420    3.4330   -1.7580 hc        1 MOL      0.008101
     89 H37         8.2290    1.7250   -3.3930 hc        1 MOL      0.024148
     90 H38         9.4090    0.6130   -2.6750 hc        1 MOL      0.024148
     91 H39        10.4110    0.5180   -4.7650 hn        1 MOL      0.355325
     92 H40        11.8470    1.5470   -5.0260 hn        1 MOL      0.355325
     93 N9          6.6700    2.4250    1.4600 n         1 MOL     -0.401204
     94 C30         6.2550    3.0970    2.6460 c3        1 MOL     -0.022369
     95 C31         4.7160    3.1550    2.9170 c         1 MOL      0.591263
     96 O16         4.3600    3.8200    3.8840 o         1 MOL     -0.606341
     97 C32         6.9140    2.3690    3.8930 c3        1 MOL      0.308439
     98 C33         6.6230    0.8940    4.0620 c3        1 MOL     -0.288595
     99 C34         8.4070    2.7010    4.0180 c3        1 MOL     -0.288595
    100 H41         6.4010    1.4510    1.4420 hn        1 MOL      0.287696
    101 H42         6.6250    4.1150    2.6810 h1        1 MOL      0.082209
    102 H43         6.5110    2.8460    4.7840 hc        1 MOL     -0.046578
    103 H44         6.9710    0.4880    5.0100 hc        1 MOL      0.056094
    104 H45         5.5370    0.8040    4.1100 hc        1 MOL      0.056094
    105 H46         6.9590    0.4600    3.1270 hc        1 MOL      0.056094
    106 H47         8.6750    3.7200    3.7620 hc        1 MOL      0.056094
    107 H48         8.7450    2.5570    5.0550 hc        1 MOL      0.056094
    108 H49         8.9850    2.0380    3.3700 hc        1 MOL      0.056094
    109 N10         3.8480    2.5940    2.0750 n         1 MOL     -0.520883
    110 C35         2.4410    2.2730    2.3750 c3        1 MOL      0.396847
    111 C36         1.5900    2.4100    1.0920 c         1 MOL      0.546239
    112 O17         2.1440    2.3760   -0.0100 o         1 MOL     -0.481356
    113 C37         2.3620    0.8790    2.9580 c3        1 MOL     -0.515930
    114 C38         0.9360    0.2130    2.9660 c         1 MOL      0.624659
    115 N11         0.7160   -0.7940    2.2030 n         1 MOL     -0.557615
    116 O18         0.0830    0.5910    3.7220 o         1 MOL     -0.604743
    117 H50         4.2390    2.1320    1.2680 hn        1 MOL      0.204871
    118 H51         1.9300    2.9850    3.0260 h1        1 MOL      0.007062
    119 H52         2.8160    0.9340    3.9480 hc        1 MOL      0.154674
    120 H53         2.9920    0.2090    2.3860 hc        1 MOL      0.154674
    121 H54         1.3930   -0.9990    1.4780 hn        1 MOL      0.280170
    122 H55        -0.1590   -1.2920    2.2620 hn        1 MOL      0.280170
    123 N12         0.2660    2.7220    1.2540 n         1 MOL     -0.760963
    124 C39        -0.6650    2.8050    0.1320 c3        1 MOL      0.371510
    125 C40        -2.0280    3.3350    0.5760 c         1 MOL      0.618963
    126 O19        -2.5110    2.9390    1.6050 o         1 MOL     -0.570575
    127 C41        -0.7490    1.4890   -0.6620 c3        1 MOL     -0.333858
    128 C42        -1.9050    1.4040   -1.6380 ca        1 MOL      0.239712
    129 C43        -1.8450    2.0150   -2.9000 ca        1 MOL     -0.236097
    130 C44        -3.0070    0.5890   -1.2800 ca        1 MOL     -0.236097
    131 C45        -2.9210    1.7150   -3.7940 ca        1 MOL     -0.135422
    132 C46        -4.0210    0.3030   -2.2170 ca        1 MOL     -0.135422
    133 C47        -3.9410    0.8430   -3.4910 ca        1 MOL      0.068312
    134 O20        -4.9350    0.5460   -4.3230 oh        1 MOL     -0.343484
    135 H56        -0.1110    2.8280    2.1810 hn        1 MOL      0.376739
    136 H57        -0.2870    3.4770   -0.6280 h1        1 MOL      0.003404
    137 H58        -0.9490    0.7070    0.0760 hc        1 MOL      0.121643
    138 H59         0.2280    1.4260   -1.1250 hc        1 MOL      0.121643
    139 H60        -1.1220    2.7800   -3.1500 ha        1 MOL      0.153134
    140 H61        -3.0140   -0.0280   -0.3910 ha        1 MOL      0.153134
    141 H62        -2.9440    2.0790   -4.8150 ha        1 MOL      0.094307
    142 H63        -4.7810   -0.4580   -2.1490 ha        1 MOL      0.094307
    143 H64        -4.8210    0.9150   -5.2050 ho        1 MOL      0.337292
    144 N13        -2.5240    4.2930   -0.1750 n         1 MOL     -0.734467
    145 C48        -3.6680    5.1060    0.0820 c3        1 MOL      0.285317
    146 C49        -4.6200    5.0570   -1.1220 c         1 MOL      0.513124
    147 O21        -4.4240    5.7700   -2.1610 o         1 MOL     -0.558199
    148 C50        -3.1370    6.5270    0.3720 c3        1 MOL     -0.037746
    149 C51        -4.3130    7.4650    0.5110 c3        1 MOL     -0.235276
    150 C52        -3.7430    8.9020    0.7230 c         1 MOL      0.716434
    151 O22        -3.6080    9.2750    1.8920 o         1 MOL     -0.669088
    152 O23        -3.4830    9.6570   -0.2420 o         1 MOL     -0.669088
    153 H65        -2.0380    4.5020   -1.0290 hn        1 MOL      0.329574
    154 H66        -4.1420    4.7950    1.0150 h1        1 MOL      0.095980
    155 H67        -2.4060    6.7920   -0.3880 hc        1 MOL      0.036730
    156 H68        -2.7750    6.5270    1.3970 hc        1 MOL      0.036730
    157 H69        -4.9160    7.1610    1.3640 hc        1 MOL      0.040324
    158 H70        -4.9920    7.5570   -0.3430 hc        1 MOL      0.040324
    159 N14        -5.6730    4.2650   -1.1000 n         1 MOL     -0.416154
    160 C53        -6.0100    3.1300   -0.2250 c3        1 MOL     -0.200733
    161 C54        -6.7020    3.5790    1.0930 c         1 MOL      0.609717
    162 O24        -7.2850    4.6430    1.1470 o         1 MOL     -0.540935
    163 C55        -6.7420    1.9990   -0.9120 c3        1 MOL      0.503279
    164 C56        -8.1950    2.2760   -1.1000 c3        1 MOL     -0.361750
    165 C57        -9.0280    1.0650   -1.4290 c         1 MOL      0.720641
    166 O25        -9.1790    0.1410   -0.5760 o         1 MOL     -0.750150
    167 O26        -9.4620    0.9400   -2.6130 o         1 MOL     -0.750150
    168 H71        -6.1890    4.1640   -1.9610 hn        1 MOL      0.243776
    169 H72        -5.0570    2.7080    0.0840 h1        1 MOL      0.080751
    170 H73        -6.6180    1.1800   -0.1960 hc        1 MOL     -0.064945
    171 H74        -6.2340    1.8230   -1.8560 hc        1 MOL     -0.064945
    172 H75        -8.3190    3.0190   -1.8910 hc        1 MOL      0.082502
    173 H76        -8.6430    2.6590   -0.1790 hc        1 MOL      0.082502
    174 N15        -6.5270    2.7420    2.0520 n         1 MOL     -0.432216
    175 C58        -6.5440    3.1120    3.4550 c3        1 MOL     -0.482804
    176 H77        -5.5440    2.9940    3.8740 h1        1 MOL      0.182891
    177 H78        -6.8570    4.1510    3.5540 h1        1 MOL      0.182891
    178 H79        -7.2400    2.4690    3.9930 h1        1 MOL      0.182891
    179 H80        -6.1100    1.8350    1.8730 hn        1 MOL      0.332114
    180 Ca1        -8.7280   -2.3760   -1.2990 Ca        1 MOL      1.561603
    181 O27        -9.0140   -4.7400   -2.5770 oh        1 MOL     -0.807769
    182 H81        -9.7780   -4.9240   -3.1270 ho        1 MOL      0.382124
    183 H82        -8.3610   -5.3920   -2.8520 ho        1 MOL      0.382124
    184 O28       -10.5060   -2.3000   -3.5990 oh        1 MOL     -0.807769
    185 H83       -11.0220   -3.0270   -3.9540 ho        1 MOL      0.382124
    186 H84       -11.0190   -1.5230   -3.8100 ho        1 MOL      0.382124
    187 O29        -7.4380   -1.6850   -3.5700 oh        1 MOL     -0.807769
    188 H85        -6.4940   -1.7850   -3.4690 ho        1 MOL      0.382124
    189 H86        -7.6040   -1.8720   -4.4860 ho        1 MOL      0.382124
@<TRIPOS>BOND
     1    1    2 1   
     2    1    4 1   
     3    1    5 1   
     4    1    6 1   
     5    2    3 2   
     6    2    7 1   
     7    7    8 1   
     8    7   15 1   
     9    8    9 1   
    10    8   11 1   
    11    8   16 1   
    12    9   10 2   
    13    9   19 1   
    14   11   12 1   
    15   11   17 1   
    16   11   18 1   
    17   12   13 1   
    18   12   14 1   
    19   19   20 1   
    20   19   27 1   
    21   20   21 1   
    22   20   23 1   
    23   20   28 1   
    24   21   22 2   
    25   21   38 1   
    26   23   24 1   
    27   23   25 1   
    28   23   29 1   
    29   24   26 1   
    30   24   30 1   
    31   24   31 1   
    32   25   32 1   
    33   25   33 1   
    34   25   34 1   
    35   26   35 1   
    36   26   36 1   
    37   26   37 1   
    38   38   39 1   
    39   38   46 1   
    40   39   40 1   
    41   39   42 1   
    42   39   47 1   
    43   40   41 2   
    44   40   50 1   
    45   42   43 1   
    46   42   48 1   
    47   42   49 1   
    48   43   44 1   
    49   43   45 1   
    50   50   51 1   
    51   50   54 1   
    52   51   52 1   
    53   51   55 1   
    54   51   56 1   
    55   52   53 2   
    56   52   57 1   
    57   57   58 1   
    58   57   65 1   
    59   58   59 1   
    60   58   61 1   
    61   58   66 1   
    62   59   60 2   
    63   59   69 1   
    64   61   62 1   
    65   61   67 1   
    66   61   68 1   
    67   62   63 1   
    68   62   64 1   
    69   69   70 1   
    70   69   73 1   
    71   70   71 1   
    72   70   74 1   
    73   70   75 1   
    74   71   72 2   
    75   71   76 1   
    76   76   77 1   
    77   76   85 1   
    78   77   78 1   
    79   77   80 1   
    80   77   86 1   
    81   78   79 2   
    82   78   93 1   
    83   80   81 1   
    84   80   87 1   
    85   80   88 1   
    86   81   82 1   
    87   81   89 1   
    88   81   90 1   
    89   82   83 1   
    90   82   84 2   
    91   83   91 1   
    92   83   92 1   
    93   93   94 1   
    94   93  100 1   
    95   94   95 1   
    96   94   97 1   
    97   94  101 1   
    98   95   96 2   
    99   95  109 1   
   100   97   98 1   
   101   97   99 1   
   102   97  102 1   
   103   98  103 1   
   104   98  104 1   
   105   98  105 1   
   106   99  106 1   
   107   99  107 1   
   108   99  108 1   
   109  109  110 1   
   110  109  117 1   
   111  110  111 1   
   112  110  113 1   
   113  110  118 1   
   114  111  112 2   
   115  111  123 1   
   116  113  114 1   
   117  113  119 1   
   118  113  120 1   
   119  114  115 1   
   120  114  116 2   
   121  115  121 1   
   122  115  122 1   
   123  123  124 1   
   124  123  135 1   
   125  124  125 1   
   126  124  127 1   
   127  124  136 1   
   128  125  126 2   
   129  125  144 1   
   130  127  128 1   
   131  127  137 1   
   132  127  138 1   
   133  128  129 ar  
   134  128  130 ar  
   135  129  131 ar  
   136  129  139 1   
   137  130  132 ar  
   138  130  140 1   
   139  131  133 ar  
   140  131  141 1   
   141  132  133 ar  
   142  132  142 1   
   143  133  134 1   
   144  134  143 1   
   145  144  145 1   
   146  144  153 1   
   147  145  146 1   
   148  145  148 1   
   149  145  154 1   
   150  146  147 2   
   151  146  159 1   
   152  148  149 1   
   153  148  155 1   
   154  148  156 1   
   155  149  150 1   
   156  149  157 1   
   157  149  158 1   
   158  150  151 1   
   159  150  152 1   
   160  159  160 1   
   161  159  168 1   
   162  160  161 1   
   163  160  163 1   
   164  160  169 1   
   165  161  162 2   
   166  161  174 1   
   167  163  164 1   
   168  163  170 1   
   169  163  171 1   
   170  164  165 1   
   171  164  172 1   
   172  164  173 1   
   173  165  166 1   
   174  165  167 1   
   175  174  175 1   
   176  174  179 1   
   177  175  176 1   
   178  175  177 1   
   179  175  178 1   
   180  181  182 1   
   181  181  183 1   
   182  184  185 1   
   183  184  186 1   
   184  187  188 1   
   185  187  189 1   
@<TRIPOS>SUBSTRUCTURE
     1 MOL         1 TEMP              0 ****  ****    0 ROOT
