@<TRIPOS>MOLECULE
MOL
  191   184     1     0     0
SMALL
resp


@<TRIPOS>ATOM
      1 C1          3.6790    0.1070    6.0580 c3        1 MOL     -0.622838
      2 C2          3.1840   -0.3740    4.6650 c         1 MOL      0.659999
      3 O1          2.1100   -1.0120    4.5800 o         1 MOL     -0.576995
      4 H1          3.8840   -0.7590    6.6890 hc        1 MOL      0.167363
      5 H2          4.5910    0.6930    5.9380 hc        1 MOL      0.167363
      6 H3          2.9100    0.7220    6.5250 hc        1 MOL      0.167363
      7 N1          3.9040   -0.0440    3.5500 n         1 MOL     -0.482169
      8 C3          3.3060   -0.1900    2.1890 c3        1 MOL     -0.129093
      9 C4          3.2330   -1.6770    1.6030 c         1 MOL      0.580091
     10 O2          2.5410   -1.9050    0.6320 o         1 MOL     -0.490383
     11 C5          3.9830    0.8110    1.1900 c3        1 MOL      0.105597
     12 C6          5.4390    0.5570    0.9670 c         1 MOL      0.742702
     13 O3          5.8870   -0.5460    1.3210 o         1 MOL     -0.693079
     14 O4          6.1930    1.4930    0.6690 o         1 MOL     -0.693079
     15 H4          4.7670    0.4600    3.7150 hn        1 MOL      0.326338
     16 H5          2.2420    0.0450    2.2900 h1        1 MOL      0.127851
     17 H6          3.8950    1.7830    1.6780 hc        1 MOL     -0.049629
     18 H7          3.3970    0.8960    0.2760 hc        1 MOL     -0.049629
     19 N2          4.0130   -2.6210    2.1350 n         1 MOL     -0.452401
     20 C7          4.1800   -4.0490    1.7310 c3        1 MOL      0.078778
     21 C8          5.0540   -4.1510    0.5230 c         1 MOL      0.641856
     22 O5          5.9260   -4.9600    0.4510 o         1 MOL     -0.600746
     23 C9          4.7620   -4.8520    2.8800 c3        1 MOL     -0.043012
     24 C10         3.9780   -5.0150    4.2370 c3        1 MOL     -0.021814
     25 C11         5.0150   -5.5400    5.2730 c3        1 MOL      0.057453
     26 C12         4.2220   -5.8370    6.5850 c3        1 MOL      0.033280
     27 N3          5.1490   -6.1590    7.6930 n4        1 MOL     -0.334719
     28 H8          4.5150   -2.3200    2.9520 hn        1 MOL      0.286073
     29 H9          3.2970   -4.5930    1.4140 h1        1 MOL      0.047989
     30 H10         5.7550   -4.4590    3.0690 hc        1 MOL      0.048002
     31 H11         4.8960   -5.9090    2.6400 hc        1 MOL      0.048002
     32 H12         3.1800   -5.7590    4.2910 hc        1 MOL      0.003742
     33 H13         3.6150   -4.0290    4.5140 hc        1 MOL      0.003742
     34 H14         5.7610   -4.7630    5.4380 hc        1 MOL      0.006923
     35 H15         5.5510   -6.4290    4.9540 hc        1 MOL      0.006923
     36 H16         3.5990   -6.7070    6.3640 hx        1 MOL      0.086278
     37 H17         3.5910   -5.0190    6.9490 hx        1 MOL      0.086278
     38 H18         4.6110   -6.4800    8.4830 hn        1 MOL      0.317847
     39 H19         5.8540   -6.8310    7.4560 hn        1 MOL      0.317847
     40 H20         5.5930   -5.3260    8.0390 hn        1 MOL      0.317847
     41 N4          4.6760   -3.4080   -0.4860 n         1 MOL     -0.288442
     42 C13         5.1560   -3.5280   -1.8080 c3        1 MOL      0.027703
     43 C14         5.2300   -2.2020   -2.5640 c         1 MOL      0.558602
     44 O6          4.7720   -2.1780   -3.6910 o         1 MOL     -0.554530
     45 C15         4.5440   -4.6560   -2.5680 c3        1 MOL     -0.371620
     46 C16         3.0540   -4.6800   -2.8310 c         1 MOL      0.852427
     47 O7          2.3340   -4.4660   -1.8520 o         1 MOL     -0.732369
     48 O8          2.6410   -5.0300   -3.9330 o         1 MOL     -0.732369
     49 H21         3.8980   -2.7910   -0.2930 hn        1 MOL      0.033558
     50 H22         6.1940   -3.8450   -1.7160 h1        1 MOL      0.074738
     51 H23         4.7740   -5.5890   -2.0430 hc        1 MOL      0.106559
     52 H24         5.0150   -4.7430   -3.5420 hc        1 MOL      0.106559
     53 N5          5.6060   -1.1730   -1.8710 n         1 MOL     -0.358772
     54 C17         5.5950    0.1760   -2.4240 c3        1 MOL      0.141875
     55 C18         6.7750    0.6900   -3.2610 c         1 MOL      0.524035
     56 O9          7.7380   -0.0170   -3.5580 o         1 MOL     -0.518567
     57 H25         5.9500   -1.2910   -0.9300 hn        1 MOL      0.218171
     58 H26         5.6330    0.7970   -1.5280 h1        1 MOL     -0.002883
     59 H27         4.6330    0.2930   -2.9160 h1        1 MOL     -0.002883
     60 N6          6.7060    1.9510   -3.7420 n         1 MOL     -0.501218
     61 C19         5.6920    2.9460   -3.4050 c3        1 MOL      0.177024
     62 C20         6.1250    3.7250   -2.1480 c         1 MOL      0.406733
     63 O10         7.2650    4.1380   -1.9860 o         1 MOL     -0.506866
     64 C21         5.5030    3.8280   -4.6520 c3        1 MOL     -0.275150
     65 C22         4.2840    4.7310   -4.5160 c         1 MOL      0.650483
     66 N7          3.1790    4.3710   -5.1650 n         1 MOL     -0.783050
     67 O11         4.2630    5.7170   -3.7970 o         1 MOL     -0.528327
     68 H28         7.4580    2.2100   -4.3610 hn        1 MOL      0.326690
     69 H29         4.7030    2.5540   -3.1920 h1        1 MOL      0.023564
     70 H30         5.3770    3.1740   -5.5220 hc        1 MOL      0.086393
     71 H31         6.3650    4.4030   -4.9700 hc        1 MOL      0.086393
     72 H32         3.2000    3.5230   -5.7210 hn        1 MOL      0.362851
     73 H33         2.4060    5.0230   -5.1710 hn        1 MOL      0.362851
     74 N8          5.2450    3.9580   -1.1920 n         1 MOL     -0.305631
     75 C23         3.7610    3.6470   -1.0650 c3        1 MOL     -0.023530
     76 C24         2.8650    4.2840    0.0150 c         1 MOL      0.776369
     77 O12         3.3210    5.0020    0.8730 o         1 MOL     -0.547818
     78 H34         5.5990    4.4330   -0.3790 hn        1 MOL      0.278794
     79 H35         3.7200    2.5630   -0.9640 h1        1 MOL     -0.011792
     80 H36         3.3790    3.9770   -2.0320 h1        1 MOL     -0.011792
     81 N9          1.5820    3.9170   -0.0980 n         1 MOL     -0.635006
     82 C25         0.5410    4.6140    0.6770 c3        1 MOL      0.106083
     83 C26        -0.6920    3.6950    0.7850 c         1 MOL      0.577742
     84 O13        -0.7700    2.6780    0.0290 o         1 MOL     -0.528671
     85 C27         0.2130    5.9650    0.0640 c3        1 MOL     -0.101595
     86 C28        -0.4710    6.8950    0.9790 ca        1 MOL     -0.013762
     87 C29        -1.8490    7.2550    0.7240 ca        1 MOL     -0.106753
     88 C30         0.2380    7.4910    2.0330 ca        1 MOL     -0.106753
     89 C31        -2.5780    8.1200    1.5420 ca        1 MOL     -0.270048
     90 C32        -0.4890    8.3100    2.9510 ca        1 MOL     -0.270048
     91 C33        -1.8470    8.6240    2.6600 ca        1 MOL      0.347931
     92 O14        -2.4720    9.3960    3.5580 oh        1 MOL     -0.487157
     93 H37         1.3880    3.1720   -0.7590 hn        1 MOL      0.304121
     94 H38         0.8710    4.7150    1.7120 h1        1 MOL      0.042947
     95 H39        -0.4430    5.7580   -0.7720 hc        1 MOL      0.079155
     96 H40         1.0680    6.4640   -0.4060 hc        1 MOL      0.079155
     97 H41        -2.2550    6.7300   -0.1290 ha        1 MOL      0.124272
     98 H42         1.2510    7.1460    2.2190 ha        1 MOL      0.124272
     99 H43        -3.6460    8.2950    1.5060 ha        1 MOL      0.148172
    100 H44         0.0360    8.7230    3.8050 ha        1 MOL      0.148172
    101 H45        -2.0130    9.4930    4.3980 ho        1 MOL      0.359301
    102 N10        -1.6270    4.0570    1.6860 n         1 MOL     -0.446191
    103 C34        -2.9220    3.4220    1.8840 c3        1 MOL     -0.118253
    104 C35        -3.7740    3.5220    0.6230 c         1 MOL      0.446807
    105 O15        -3.5870    4.5150   -0.1750 o         1 MOL     -0.459318
    106 C36        -3.6100    3.7690    3.1750 c3        1 MOL      0.269187
    107 C37        -3.1670    3.0310    4.4430 c3        1 MOL     -0.034492
    108 C38        -3.5980    5.3360    3.3190 c3        1 MOL     -0.140544
    109 C39        -4.0870    3.2030    5.6930 c3        1 MOL     -0.195738
    110 H46        -1.5410    4.9290    2.1720 hn        1 MOL      0.240887
    111 H47        -2.7240    2.3560    1.9730 h1        1 MOL      0.092639
    112 H48        -4.6820    3.5870    3.0520 hc        1 MOL     -0.035247
    113 H49        -2.1420    3.3780    4.6180 hc        1 MOL      0.017422
    114 H50        -3.1550    1.9760    4.1750 hc        1 MOL      0.017422
    115 H51        -4.0550    5.7940    2.4320 hc        1 MOL      0.040589
    116 H52        -4.0930    5.6540    4.2310 hc        1 MOL      0.040589
    117 H53        -2.5650    5.6790    3.4090 hc        1 MOL      0.040589
    118 H54        -5.1020    2.8510    5.5270 hc        1 MOL      0.056761
    119 H55        -3.6330    2.6850    6.5380 hc        1 MOL      0.056761
    120 H56        -4.0680    4.2550    5.9820 hc        1 MOL      0.056761
    121 N11        -4.6580    2.5330    0.3460 n         1 MOL     -0.467066
    122 C40        -5.5680    2.4510   -0.8530 c3        1 MOL      0.281284
    123 C41        -5.7060    1.0420   -1.5000 c         1 MOL      0.472009
    124 O16        -5.6440    0.0300   -0.8000 o         1 MOL     -0.503237
    125 C42        -6.9040    3.1810   -0.5810 c3        1 MOL      0.230485
    126 O17        -6.6600    4.4120    0.0770 oh        1 MOL     -0.578908
    127 H57        -4.7360    1.7800    1.0090 hn        1 MOL      0.274516
    128 H58        -5.1650    3.0560   -1.6620 h1        1 MOL      0.015715
    129 H59        -7.4790    2.5410    0.0910 h1        1 MOL     -0.033161
    130 H60        -7.4670    3.2770   -1.5100 h1        1 MOL     -0.033161
    131 H61        -7.4840    4.8020    0.3600 ho        1 MOL      0.405145
    132 N12        -5.9840    1.0550   -2.7690 n         1 MOL     -0.631587
    133 C43        -6.0150   -0.2200   -3.5870 c3        1 MOL      0.241270
    134 C44        -6.8020   -1.3760   -3.1000 c         1 MOL      0.278271
    135 O18        -6.4750   -2.5350   -3.3530 o         1 MOL     -0.386009
    136 C45        -4.5540   -0.5500   -3.7820 c3        1 MOL     -0.367730
    137 H62        -6.0650    1.9210   -3.2870 hn        1 MOL      0.356110
    138 H63        -6.4830    0.0860   -4.5260 h1        1 MOL      0.086060
    139 H64        -4.0490    0.4080   -3.8970 hc        1 MOL      0.125708
    140 H65        -4.1720   -0.9290   -2.8300 hc        1 MOL      0.125708
    141 H66        -4.4340   -1.1980   -4.6350 hc        1 MOL      0.125708
    142 N13        -7.9000   -1.0990   -2.3530 n         1 MOL     -0.389209
    143 C46        -8.8230   -2.0270   -1.7880 c3        1 MOL      0.297257
    144 C47        -8.2200   -3.1970   -1.0240 c         1 MOL      0.163621
    145 O19        -8.8370   -4.2960   -0.9630 o         1 MOL     -0.443470
    146 C48        -9.7750   -2.4110   -2.9320 c3        1 MOL     -0.364947
    147 H67        -8.1680   -0.1430   -2.1440 hn        1 MOL      0.251178
    148 H68        -9.4590   -1.4420   -1.1220 h1        1 MOL      0.025651
    149 H69        -9.2020   -3.0570   -3.6000 hc        1 MOL      0.105929
    150 H70       -10.5790   -3.0550   -2.5700 hc        1 MOL      0.105929
    151 H71       -10.1560   -1.4760   -3.3380 hc        1 MOL      0.105929
    152 N14        -7.0530   -3.0200   -0.5070 n         1 MOL      0.019351
    153 C49        -6.3450   -4.2110    0.0650 c3        1 MOL     -0.092676
    154 C50        -6.9620   -4.7450    1.3300 c         1 MOL      0.364958
    155 O20        -7.0600   -5.9560    1.4900 o         1 MOL     -0.510426
    156 C51        -4.8540   -3.9320    0.2760 c3        1 MOL      0.137607
    157 C52        -4.1610   -3.3790   -0.9980 c3        1 MOL      0.058440
    158 C53        -2.6520   -3.4460   -0.9540 c         1 MOL      0.493287
    159 O21        -1.9370   -3.8810   -1.8820 o         1 MOL     -0.695326
    160 O22        -2.0950   -2.8890    0.0240 o         1 MOL     -0.695326
    161 H72        -6.5980   -2.1480   -0.7490 hn        1 MOL      0.053652
    162 H73        -6.4020   -5.0840   -0.5890 h1        1 MOL      0.120304
    163 H74        -4.4030   -4.8300    0.6890 hc        1 MOL     -0.024406
    164 H75        -4.6710   -3.1990    1.0700 hc        1 MOL     -0.024406
    165 H76        -4.4830   -2.3650   -1.1740 hc        1 MOL      0.008474
    166 H77        -4.5040   -3.9430   -1.8720 hc        1 MOL      0.008474
    167 N15        -7.5050   -3.8630    2.1100 n         1 MOL     -0.213729
    168 C54        -8.3690   -4.3510    3.2380 c3        1 MOL     -0.088251
    169 H78        -7.8730   -4.1510    4.1880 h1        1 MOL      0.070803
    170 H79        -9.3270   -3.8310    3.2140 h1        1 MOL      0.070803
    171 H80        -8.5350   -5.4230    3.1330 h1        1 MOL      0.070803
    172 H81        -7.5100   -2.8950    1.8100 hn        1 MOL      0.180064
    173 Ca1         0.4020   -2.7520   -1.0950 Ca        1 MOL      1.790578
    174 O23         0.3980   -3.4030   -3.7620 oh        1 MOL     -0.799490
    175 H82         1.0870   -4.0670   -3.7650 ho        1 MOL      0.386002
    176 H83         0.3590   -3.1000   -4.6770 ho        1 MOL      0.386002
    177 O24         0.6120   -3.8940    1.3550 oh        1 MOL     -0.799490
    178 H84         0.8210   -3.3760    2.1320 ho        1 MOL      0.386002
    179 H85         0.7320   -4.8050    1.6380 ho        1 MOL      0.386002
    180 O25        -0.1060   -5.9110   -1.2930 oh        1 MOL     -0.799490
    181 H86        -0.8370   -5.3820   -1.6230 ho        1 MOL      0.386002
    182 H87        -0.5280   -6.6360   -0.8410 ho        1 MOL      0.386002
    183 O26         2.1480   -1.4030   -2.5390 oh        1 MOL     -0.799490
    184 H88         2.2340   -0.4560   -2.4600 ho        1 MOL      0.386002
    185 H89         2.7350   -1.6350   -3.2580 ho        1 MOL      0.386002
    186 O27        -1.1050   -1.0790   -2.5660 oh        1 MOL     -0.799490
    187 H90        -1.7810   -0.4680   -2.2640 ho        1 MOL      0.386002
    188 H91        -0.9670   -0.8550   -3.4860 ho        1 MOL      0.386002
    189 O28        -0.1930   -0.5860    0.1220 oh        1 MOL     -0.799490
    190 H92        -0.2690   -0.2160    1.0020 ho        1 MOL      0.386002
    191 H93        -0.4510    0.1240   -0.4580 ho        1 MOL      0.386002
@<TRIPOS>BOND
     1    1    2 1   
     2    1    4 1   
     3    1    5 1   
     4    1    6 1   
     5    2    3 2   
     6    2    7 1   
     7    7    8 1   
     8    7   15 1   
     9    8    9 1   
    10    8   11 1   
    11    8   16 1   
    12    9   10 2   
    13    9   19 1   
    14   11   12 1   
    15   11   17 1   
    16   11   18 1   
    17   12   13 1   
    18   12   14 1   
    19   19   20 1   
    20   19   28 1   
    21   20   21 1   
    22   20   23 1   
    23   20   29 1   
    24   21   22 2   
    25   21   41 1   
    26   23   24 1   
    27   23   30 1   
    28   23   31 1   
    29   24   25 1   
    30   24   32 1   
    31   24   33 1   
    32   25   26 1   
    33   25   34 1   
    34   25   35 1   
    35   26   27 1   
    36   26   36 1   
    37   26   37 1   
    38   27   38 1   
    39   27   39 1   
    40   27   40 1   
    41   41   42 1   
    42   41   49 1   
    43   42   43 1   
    44   42   45 1   
    45   42   50 1   
    46   43   44 2   
    47   43   53 1   
    48   45   46 1   
    49   45   51 1   
    50   45   52 1   
    51   46   47 1   
    52   46   48 1   
    53   53   54 1   
    54   53   57 1   
    55   54   55 1   
    56   54   58 1   
    57   54   59 1   
    58   55   56 2   
    59   55   60 1   
    60   60   61 1   
    61   60   68 1   
    62   61   62 1   
    63   61   64 1   
    64   61   69 1   
    65   62   63 2   
    66   62   74 1   
    67   64   65 1   
    68   64   70 1   
    69   64   71 1   
    70   65   66 1   
    71   65   67 2   
    72   66   72 1   
    73   66   73 1   
    74   74   75 1   
    75   74   78 1   
    76   75   76 1   
    77   75   79 1   
    78   75   80 1   
    79   76   77 2   
    80   76   81 1   
    81   81   82 1   
    82   81   93 1   
    83   82   83 1   
    84   82   85 1   
    85   82   94 1   
    86   83   84 2   
    87   83  102 1   
    88   85   86 1   
    89   85   95 1   
    90   85   96 1   
    91   86   87 ar  
    92   86   88 ar  
    93   87   89 ar  
    94   87   97 1   
    95   88   90 ar  
    96   88   98 1   
    97   89   91 ar  
    98   89   99 1   
    99   90   91 ar  
   100   90  100 1   
   101   91   92 1   
   102   92  101 1   
   103  102  103 1   
   104  102  110 1   
   105  103  104 1   
   106  103  106 1   
   107  103  111 1   
   108  104  105 2   
   109  104  121 1   
   110  106  107 1   
   111  106  108 1   
   112  106  112 1   
   113  107  109 1   
   114  107  113 1   
   115  107  114 1   
   116  108  115 1   
   117  108  116 1   
   118  108  117 1   
   119  109  118 1   
   120  109  119 1   
   121  109  120 1   
   122  121  122 1   
   123  121  127 1   
   124  122  123 1   
   125  122  125 1   
   126  122  128 1   
   127  123  124 2   
   128  123  132 1   
   129  125  126 1   
   130  125  129 1   
   131  125  130 1   
   132  126  131 1   
   133  132  133 1   
   134  132  137 1   
   135  133  134 1   
   136  133  136 1   
   137  133  138 1   
   138  134  135 2   
   139  134  142 1   
   140  136  139 1   
   141  136  140 1   
   142  136  141 1   
   143  142  143 1   
   144  142  147 1   
   145  143  144 1   
   146  143  146 1   
   147  143  148 1   
   148  144  145 2   
   149  144  152 1   
   150  146  149 1   
   151  146  150 1   
   152  146  151 1   
   153  152  153 1   
   154  152  161 1   
   155  153  154 1   
   156  153  156 1   
   157  153  162 1   
   158  154  155 2   
   159  154  167 1   
   160  156  157 1   
   161  156  163 1   
   162  156  164 1   
   163  157  158 1   
   164  157  165 1   
   165  157  166 1   
   166  158  159 1   
   167  158  160 1   
   168  167  168 1   
   169  167  172 1   
   170  168  169 1   
   171  168  170 1   
   172  168  171 1   
   173  174  175 1   
   174  174  176 1   
   175  177  178 1   
   176  177  179 1   
   177  180  181 1   
   178  180  182 1   
   179  183  184 1   
   180  183  185 1   
   181  186  187 1   
   182  186  188 1   
   183  189  190 1   
   184  189  191 1   
@<TRIPOS>SUBSTRUCTURE
     1 MOL         1 TEMP              0 ****  ****    0 ROOT
