@<TRIPOS>MOLECULE
MOL
  195   189     1     0     0
SMALL
resp


@<TRIPOS>ATOM
      1 C1          1.9030    3.6930    3.5960 c3        1 MOL     -0.320766
      2 C2          0.9300    3.6760    2.3650 c         1 MOL      0.593145
      3 O1          0.1210    2.7480    2.2490 o         1 MOL     -0.523072
      4 H1          1.4930    4.3370    4.3730 hc        1 MOL      0.066649
      5 H2          2.0150    2.6810    3.9850 hc        1 MOL      0.066649
      6 H3          2.8760    4.0730    3.2860 hc        1 MOL      0.066649
      7 N1          1.1560    4.6960    1.5140 n         1 MOL     -0.342935
      8 C3          0.3760    5.0040    0.2070 c3        1 MOL     -0.049076
      9 C4         -1.1810    4.7920    0.2660 c         1 MOL      0.569457
     10 O2         -1.7650    4.2410   -0.6790 o         1 MOL     -0.520977
     11 C5          1.0020    4.2900   -0.9800 c3        1 MOL     -0.256920
     12 C6          2.5050    4.5100   -0.9780 c         1 MOL      0.647983
     13 O3          2.9280    5.6400   -1.3560 o         1 MOL     -0.692050
     14 O4          3.3040    3.5630   -0.7860 o         1 MOL     -0.692050
     15 H4          1.9800    5.2440    1.7370 hn        1 MOL      0.186174
     16 H5          0.5230    6.0540   -0.0200 h1        1 MOL      0.074618
     17 H6          0.5890    4.7800   -1.8590 hc        1 MOL      0.132990
     18 H7          0.7330    3.2290   -1.0570 hc        1 MOL      0.132990
     19 N2         -1.7990    5.1590    1.3730 n         1 MOL     -0.224001
     20 C7         -3.2420    5.1010    1.6070 c3        1 MOL     -0.279213
     21 C8         -4.0380    6.2300    0.9530 c         1 MOL      0.573122
     22 O5         -3.4370    7.3250    0.9190 o         1 MOL     -0.604740
     23 C9         -3.5720    5.0230    3.1110 c3        1 MOL      0.149127
     24 C10        -3.1020    6.3910    3.8130 c3        1 MOL      0.031637
     25 C11        -2.9170    3.8100    3.7850 c3        1 MOL     -0.398807
     26 C12        -3.3400    6.4950    5.3710 c3        1 MOL     -0.246560
     27 H8         -1.2010    5.6880    1.9880 hn        1 MOL      0.163063
     28 H9         -3.6490    4.1950    1.1430 h1        1 MOL      0.193526
     29 H10        -4.6270    4.8410    3.2970 hc        1 MOL      0.047888
     30 H11        -3.5600    7.2690    3.3760 hc        1 MOL      0.043658
     31 H12        -2.0270    6.4690    3.6380 hc        1 MOL      0.043658
     32 H13        -3.3090    3.7830    4.7980 hc        1 MOL      0.100596
     33 H14        -3.0840    2.8680    3.2660 hc        1 MOL      0.100596
     34 H15        -1.8500    3.9050    3.9970 hc        1 MOL      0.100596
     35 H16        -4.3690    6.3070    5.6890 hc        1 MOL      0.048332
     36 H17        -2.8140    5.7310    5.9320 hc        1 MOL      0.048332
     37 H18        -3.0090    7.4860    5.7030 hc        1 MOL      0.048332
     38 N3         -5.2710    6.1240    0.5160 n         1 MOL     -0.469562
     39 C13        -6.2080    4.9920    0.4930 c3        1 MOL      0.068292
     40 C14        -5.6500    3.7140   -0.1380 c         1 MOL      0.476680
     41 O6         -5.9710    2.5680    0.3020 o         1 MOL     -0.568241
     42 C15        -7.5680    5.2450   -0.1400 c3        1 MOL     -0.094460
     43 C16        -8.2480    6.5790    0.0740 c         1 MOL      0.703102
     44 O7         -7.6450    7.6570    0.0350 o         1 MOL     -0.713930
     45 O8         -9.5100    6.5940    0.2120 o         1 MOL     -0.713930
     46 H19        -5.7520    6.9800    0.2890 hn        1 MOL      0.290703
     47 H20        -6.4730    4.6650    1.4960 h1        1 MOL      0.041143
     48 H21        -8.3110    4.5930    0.3210 hc        1 MOL      0.013795
     49 H22        -7.4990    4.9470   -1.1840 hc        1 MOL      0.013795
     50 N4         -4.7190    3.7930   -1.1560 n         1 MOL     -0.387299
     51 C17        -4.1200    2.6800   -1.8860 c3        1 MOL     -0.137118
     52 C18        -5.1830    1.7800   -2.4970 c         1 MOL      0.741767
     53 O9         -6.1180    2.2390   -3.1180 o         1 MOL     -0.551863
     54 H23        -4.4710    4.7080   -1.5050 hn        1 MOL      0.302313
     55 H24        -3.4560    2.0910   -1.2640 h1        1 MOL      0.098911
     56 H25        -3.4230    2.9400   -2.6830 h1        1 MOL      0.098911
     57 N5         -5.0300    0.4560   -2.3340 n         1 MOL     -0.671972
     58 C19        -5.7300   -0.5520   -3.0980 c3        1 MOL      0.099901
     59 C20        -6.3670   -1.6270   -2.1870 c         1 MOL      0.490482
     60 O10        -6.9180   -2.6200   -2.6660 o         1 MOL     -0.558700
     61 C21        -4.7060   -1.2510   -4.0460 c3        1 MOL     -0.247172
     62 C22        -3.7590   -0.1700   -4.8510 c         1 MOL      0.730682
     63 O11        -2.7220    0.2980   -4.3030 o         1 MOL     -0.703546
     64 O12        -4.0030    0.0110   -6.0610 o         1 MOL     -0.703546
     65 H26        -4.2320    0.2060   -1.7670 hn        1 MOL      0.291283
     66 H27        -6.5280   -0.1330   -3.7140 h1        1 MOL      0.111016
     67 H28        -5.2190   -1.8360   -4.8100 hc        1 MOL      0.043192
     68 H29        -4.1280   -1.9230   -3.4190 hc        1 MOL      0.043192
     69 N6         -6.2870   -1.4730   -0.8790 n         1 MOL     -0.240600
     70 C23        -7.0930   -2.3120    0.0890 c3        1 MOL     -0.373315
     71 C24        -6.7620   -3.8480    0.2740 c         1 MOL      0.616616
     72 O13        -7.4490   -4.4710    1.0830 o         1 MOL     -0.569352
     73 H30        -5.7430   -0.7380   -0.4620 hn        1 MOL      0.276375
     74 H31        -8.1290   -2.2780   -0.2480 h1        1 MOL      0.165497
     75 H32        -7.0610   -1.8440    1.0700 h1        1 MOL      0.165497
     76 N7         -5.7610   -4.3440   -0.3770 n         1 MOL     -0.350121
     77 C25        -5.1820   -5.7490   -0.3200 c3        1 MOL      0.048645
     78 C26        -4.7680   -6.2220    1.0900 c         1 MOL      0.354203
     79 O14        -4.5660   -7.4210    1.3480 o         1 MOL     -0.510076
     80 C27        -6.1210   -6.7570   -0.9920 c3        1 MOL      0.102472
     81 C28        -6.7200   -6.2470   -2.2640 c3        1 MOL     -0.341699
     82 C29        -5.7220   -5.9140   -3.3920 c         1 MOL      0.707924
     83 N8         -5.8650   -4.7640   -4.0280 n         1 MOL     -0.753437
     84 O15        -4.9410   -6.7690   -3.7540 o         1 MOL     -0.594555
     85 H33        -5.3840   -3.7080   -1.0560 hn        1 MOL      0.205068
     86 H34        -4.2520   -5.8970   -0.8680 h1        1 MOL      0.098624
     87 H35        -6.9500   -6.9330   -0.2940 hc        1 MOL      0.018036
     88 H36        -5.6570   -7.7380   -1.1000 hc        1 MOL      0.018036
     89 H37        -7.4100   -5.4340   -2.0330 hc        1 MOL      0.091885
     90 H38        -7.2160   -7.1000   -2.7300 hc        1 MOL      0.091885
     91 H39        -6.3790   -4.0250   -3.5680 hn        1 MOL      0.335872
     92 H40        -5.0470   -4.4960   -4.5550 hn        1 MOL      0.335872
     93 N9         -4.4080   -5.2560    1.9250 n         1 MOL     -0.090206
     94 C30        -3.6250   -5.2350    3.2210 c3        1 MOL     -0.314914
     95 C31        -2.2010   -4.6070    3.1900 c         1 MOL      0.635948
     96 O16        -1.5760   -4.5430    4.2450 o         1 MOL     -0.574969
     97 C32        -4.4810   -4.7660    4.3850 c3        1 MOL      0.355091
     98 C33        -4.7790   -3.2870    4.2990 c3        1 MOL     -0.266139
     99 C34        -5.7420   -5.5150    4.4570 c3        1 MOL     -0.266139
    100 H41        -4.5600   -4.3400    1.5230 hn        1 MOL      0.137399
    101 H42        -3.4160   -6.3060    3.3260 h1        1 MOL      0.140315
    102 H43        -3.9720   -4.9770    5.3230 hc        1 MOL     -0.024098
    103 H44        -5.3360   -3.0800    3.3870 hc        1 MOL      0.055533
    104 H45        -5.3480   -3.0070    5.1810 hc        1 MOL      0.055533
    105 H46        -3.8790   -2.6630    4.2980 hc        1 MOL      0.055533
    106 H47        -6.2250   -5.2740    5.4110 hc        1 MOL      0.055533
    107 H48        -6.4800   -5.2400    3.7050 hc        1 MOL      0.055533
    108 H49        -5.5690   -6.5870    4.4730 hc        1 MOL      0.055533
    109 N10        -1.6480   -4.2730    2.0220 n         1 MOL     -0.420945
    110 C35        -0.3620   -3.6980    1.8530 c3        1 MOL      0.164124
    111 C36         0.4260   -4.2070    0.6430 c         1 MOL      0.494572
    112 O17        -0.0750   -5.1550   -0.0090 o         1 MOL     -0.530290
    113 C37        -0.6630   -2.1860    1.8930 c3        1 MOL     -0.188804
    114 C38         0.5680   -1.3630    2.1720 c         1 MOL      0.697047
    115 N11         0.7260   -0.9080    3.4410 n         1 MOL     -0.877165
    116 O18         1.4330   -1.1540    1.3720 o         1 MOL     -0.489169
    117 H50        -2.2890   -4.2970    1.2380 hn        1 MOL      0.213908
    118 H51         0.1920   -3.9740    2.7450 h1        1 MOL      0.053351
    119 H52        -1.4450   -1.9210    2.5930 hc        1 MOL      0.064716
    120 H53        -0.9840   -1.7560    0.9420 hc        1 MOL      0.064716
    121 H54         0.0550   -1.1070    4.1750 hn        1 MOL      0.379992
    122 H55         1.5280   -0.3320    3.6400 hn        1 MOL      0.379992
    123 N12         1.6390   -3.6470    0.3290 n         1 MOL     -0.291046
    124 C39         2.6410   -4.2440   -0.5660 c3        1 MOL     -0.042312
    125 C40         4.0310   -3.8550   -0.0320 c         1 MOL      0.557497
    126 O19         4.0950   -3.0590    0.8610 o         1 MOL     -0.519097
    127 C41         2.4300   -3.7910   -2.0820 c3        1 MOL     -0.154790
    128 C42         2.7950   -2.3560   -2.3840 ca        1 MOL      0.027857
    129 C43         1.8760   -1.3590   -1.9620 ca        1 MOL     -0.125950
    130 C44         4.0370   -2.0030   -2.9040 ca        1 MOL     -0.125950
    131 C45         2.2320    0.0110   -2.0640 ca        1 MOL     -0.272627
    132 C46         4.2870   -0.6490   -3.1080 ca        1 MOL     -0.272627
    133 C47         3.4050    0.3800   -2.6900 ca        1 MOL      0.413120
    134 O20         3.8480    1.7030   -2.7140 oh        1 MOL     -0.631156
    135 H56         1.9440   -2.8560    0.8750 hn        1 MOL      0.153923
    136 H57         2.5350   -5.3060   -0.3990 h1        1 MOL      0.083056
    137 H58         1.3670   -3.9580   -2.2380 hc        1 MOL      0.070770
    138 H59         2.9500   -4.4870   -2.7360 hc        1 MOL      0.070770
    139 H60         0.9230   -1.6960   -1.5780 ha        1 MOL      0.133260
    140 H61         4.7840   -2.7400   -3.1540 ha        1 MOL      0.133260
    141 H62         1.5490    0.7450   -1.6560 ha        1 MOL      0.141334
    142 H63         5.2290   -0.4520   -3.5990 ha        1 MOL      0.141334
    143 H64         3.4160    2.3340   -2.1200 ho        1 MOL      0.421167
    144 N13         5.1270   -4.3910   -0.5820 n         1 MOL     -0.476864
    145 C48         6.5290   -4.0740   -0.2600 c3        1 MOL      0.205071
    146 C49         7.0790   -3.0910   -1.2930 c         1 MOL      0.384127
    147 O21         7.4470   -3.5040   -2.3800 o         1 MOL     -0.544814
    148 C50         7.4090   -5.2600    0.1300 c3        1 MOL      0.022183
    149 C51         6.7830   -6.2230    1.0810 c3        1 MOL     -0.186356
    150 C52         7.7540   -7.4320    1.1820 c         1 MOL      0.717579
    151 O22         8.4840   -7.5380    2.1520 o         1 MOL     -0.718791
    152 O23         7.8320   -8.1790    0.2080 o         1 MOL     -0.718791
    153 H65         4.9490   -4.9120   -1.4360 hn        1 MOL      0.301609
    154 H66         6.4960   -3.5400    0.6940 h1        1 MOL      0.071917
    155 H67         8.3280   -4.9200    0.6180 hc        1 MOL      0.021112
    156 H68         7.6030   -5.8240   -0.7800 hc        1 MOL      0.021112
    157 H69         5.8080   -6.6120    0.7790 hc        1 MOL     -0.005709
    158 H70         6.4950   -5.7870    2.0400 hc        1 MOL     -0.005709
    159 N14         7.0160   -1.7750   -1.0680 n         1 MOL     -0.442895
    160 C53         6.2720   -0.9950   -0.0380 c3        1 MOL      0.004058
    161 C54         6.8920   -1.2170    1.3630 c         1 MOL      0.465294
    162 O24         8.0920   -1.3990    1.5110 o         1 MOL     -0.513837
    163 C55         6.3030    0.4710   -0.5570 c3        1 MOL      0.004387
    164 C56         7.4910    1.2570   -0.1800 c3        1 MOL     -0.027841
    165 C57         7.8240    2.3880   -1.1540 c         1 MOL      0.629761
    166 O25         7.2290    3.4600   -0.9380 o         1 MOL     -0.662873
    167 O26         8.6370    2.2910   -2.0620 o         1 MOL     -0.662873
    168 H71         7.4580   -1.2420   -1.7980 hn        1 MOL      0.331276
    169 H72         5.2500   -1.3980   -0.0460 h1        1 MOL      0.167600
    170 H73         5.4480    0.9540   -0.1010 hc        1 MOL     -0.020904
    171 H74         6.1130    0.5010   -1.6290 hc        1 MOL     -0.020904
    172 H75         8.3860    0.6360   -0.0990 hc        1 MOL     -0.028464
    173 H76         7.4750    1.6840    0.8300 hc        1 MOL     -0.028464
    174 N15         5.9660   -1.2640    2.3380 n         1 MOL     -0.201952
    175 C58         6.1530   -1.7270    3.7170 c3        1 MOL     -0.549167
    176 H77         5.1840   -1.8050    4.2080 h1        1 MOL      0.186942
    177 H78         6.6350   -2.7040    3.7100 h1        1 MOL      0.186942
    178 H79         6.7790   -1.0170    4.2580 h1        1 MOL      0.186942
    179 H80         5.0210   -1.0210    2.0880 hn        1 MOL      0.223738
    180 Ca1         5.5350    5.2000   -0.5630 Ca        1 MOL      1.708689
    181 O27         7.3100    6.1460    1.3470 oh        1 MOL     -0.848227
    182 H81         7.9230    5.6340    1.8710 ho        1 MOL      0.411890
    183 H82         7.3550    7.0300    1.7320 ho        1 MOL      0.411890
    184 O28         7.9760    6.1570   -1.3880 oh        1 MOL     -0.848227
    185 H83         8.5670    5.4640   -1.6640 ho        1 MOL      0.411890
    186 H84         8.4610    6.9670   -1.5500 ho        1 MOL      0.411890
    187 O29         5.2330    4.4370   -3.4990 oh        1 MOL     -0.848227
    188 H85         4.6880    4.7750   -4.2150 ho        1 MOL      0.411890
    189 H86         5.0980    3.4920   -3.5210 ho        1 MOL      0.411890
    190 O30         4.9720    3.4530    1.6290 oh        1 MOL     -0.848227
    191 H87         4.2160    2.8790    1.4670 ho        1 MOL      0.411890
    192 H88         5.4640    3.0040    2.3200 ho        1 MOL      0.411890
    193 O31         5.2910    7.6910   -1.4070 oh        1 MOL     -0.848227
    194 H89         4.4370    8.0030   -1.7130 ho        1 MOL      0.411890
    195 H90         5.7910    8.4840   -1.2330 ho        1 MOL      0.411890
@<TRIPOS>BOND
     1    1    2 1   
     2    1    4 1   
     3    1    5 1   
     4    1    6 1   
     5    2    3 2   
     6    2    7 1   
     7    7    8 1   
     8    7   15 1   
     9    8    9 1   
    10    8   11 1   
    11    8   16 1   
    12    9   10 2   
    13    9   19 1   
    14   11   12 1   
    15   11   17 1   
    16   11   18 1   
    17   12   13 1   
    18   12   14 1   
    19   19   20 1   
    20   19   27 1   
    21   20   21 1   
    22   20   23 1   
    23   20   28 1   
    24   21   22 2   
    25   21   38 1   
    26   23   24 1   
    27   23   25 1   
    28   23   29 1   
    29   24   26 1   
    30   24   30 1   
    31   24   31 1   
    32   25   32 1   
    33   25   33 1   
    34   25   34 1   
    35   26   35 1   
    36   26   36 1   
    37   26   37 1   
    38   38   39 1   
    39   38   46 1   
    40   39   40 1   
    41   39   42 1   
    42   39   47 1   
    43   40   41 2   
    44   40   50 1   
    45   42   43 1   
    46   42   48 1   
    47   42   49 1   
    48   43   44 1   
    49   43   45 1   
    50   50   51 1   
    51   50   54 1   
    52   51   52 1   
    53   51   55 1   
    54   51   56 1   
    55   52   53 2   
    56   52   57 1   
    57   57   58 1   
    58   57   65 1   
    59   58   59 1   
    60   58   61 1   
    61   58   66 1   
    62   59   60 2   
    63   59   69 1   
    64   61   62 1   
    65   61   67 1   
    66   61   68 1   
    67   62   63 1   
    68   62   64 1   
    69   69   70 1   
    70   69   73 1   
    71   70   71 1   
    72   70   74 1   
    73   70   75 1   
    74   71   72 2   
    75   71   76 1   
    76   76   77 1   
    77   76   85 1   
    78   77   78 1   
    79   77   80 1   
    80   77   86 1   
    81   78   79 2   
    82   78   93 1   
    83   80   81 1   
    84   80   87 1   
    85   80   88 1   
    86   81   82 1   
    87   81   89 1   
    88   81   90 1   
    89   82   83 1   
    90   82   84 2   
    91   83   91 1   
    92   83   92 1   
    93   93   94 1   
    94   93  100 1   
    95   94   95 1   
    96   94   97 1   
    97   94  101 1   
    98   95   96 2   
    99   95  109 1   
   100   97   98 1   
   101   97   99 1   
   102   97  102 1   
   103   98  103 1   
   104   98  104 1   
   105   98  105 1   
   106   99  106 1   
   107   99  107 1   
   108   99  108 1   
   109  109  110 1   
   110  109  117 1   
   111  110  111 1   
   112  110  113 1   
   113  110  118 1   
   114  111  112 2   
   115  111  123 1   
   116  113  114 1   
   117  113  119 1   
   118  113  120 1   
   119  114  115 1   
   120  114  116 2   
   121  115  121 1   
   122  115  122 1   
   123  123  124 1   
   124  123  135 1   
   125  124  125 1   
   126  124  127 1   
   127  124  136 1   
   128  125  126 2   
   129  125  144 1   
   130  127  128 1   
   131  127  137 1   
   132  127  138 1   
   133  128  129 ar  
   134  128  130 ar  
   135  129  131 ar  
   136  129  139 1   
   137  130  132 ar  
   138  130  140 1   
   139  131  133 ar  
   140  131  141 1   
   141  132  133 ar  
   142  132  142 1   
   143  133  134 1   
   144  134  143 1   
   145  144  145 1   
   146  144  153 1   
   147  145  146 1   
   148  145  148 1   
   149  145  154 1   
   150  146  147 2   
   151  146  159 1   
   152  148  149 1   
   153  148  155 1   
   154  148  156 1   
   155  149  150 1   
   156  149  157 1   
   157  149  158 1   
   158  150  151 1   
   159  150  152 1   
   160  159  160 1   
   161  159  168 1   
   162  160  161 1   
   163  160  163 1   
   164  160  169 1   
   165  161  162 2   
   166  161  174 1   
   167  163  164 1   
   168  163  170 1   
   169  163  171 1   
   170  164  165 1   
   171  164  172 1   
   172  164  173 1   
   173  165  166 1   
   174  165  167 1   
   175  174  175 1   
   176  174  179 1   
   177  175  176 1   
   178  175  177 1   
   179  175  178 1   
   180  181  182 1   
   181  181  183 1   
   182  184  185 1   
   183  184  186 1   
   184  187  188 1   
   185  187  189 1   
   186  190  191 1   
   187  190  192 1   
   188  193  194 1   
   189  193  195 1   
@<TRIPOS>SUBSTRUCTURE
     1 MOL         1 TEMP              0 ****  ****    0 ROOT
