@<TRIPOS>MOLECULE
MOL
  188   182     1     0     0
SMALL
resp


@<TRIPOS>ATOM
      1 C1          5.4570   -0.2130    5.8100 c3        1 MOL     -0.463953
      2 C2          4.5170    0.0280    4.5870 c         1 MOL      0.698197
      3 O1          3.3440    0.4100    4.7860 o         1 MOL     -0.575033
      4 H1          4.8990   -0.0580    6.7330 hc        1 MOL      0.116274
      5 H2          5.8350   -1.2350    5.7820 hc        1 MOL      0.116274
      6 H3          6.2930    0.4850    5.7700 hc        1 MOL      0.116274
      7 N1          4.9990   -0.3560    3.3940 n         1 MOL     -0.586883
      8 C3          4.1960   -0.3790    2.2160 c3        1 MOL      0.240633
      9 C4          4.0110   -1.8270    1.6850 c         1 MOL      0.466451
     10 O2          2.9690   -2.1440    1.1410 o         1 MOL     -0.551877
     11 C5          4.7730    0.5500    1.1730 c3        1 MOL      0.031993
     12 C6          6.2240    0.3800    1.0050 c         1 MOL      0.561180
     13 O3          6.9720    1.3720    0.9580 o         1 MOL     -0.634550
     14 O4          6.6390   -0.7580    0.7920 o         1 MOL     -0.634550
     15 H4          5.9860   -0.5460    3.3460 hn        1 MOL      0.331520
     16 H5          3.2080    0.0550    2.4150 h1        1 MOL      0.047678
     17 H6          4.6040    1.5690    1.5330 hc        1 MOL     -0.031529
     18 H7          4.2880    0.4880    0.2080 hc        1 MOL     -0.031529
     19 N2          4.9610   -2.7290    2.0040 n         1 MOL     -0.553801
     20 C7          4.8260   -4.2110    1.6790 c3        1 MOL      0.314500
     21 C8          5.0810   -4.5310    0.1610 c         1 MOL      0.332483
     22 O5          5.6970   -5.5150   -0.2410 o         1 MOL     -0.560141
     23 C9          5.5550   -5.0500    2.7080 c3        1 MOL     -0.004164
     24 C10         4.8530   -5.0760    4.0680 c3        1 MOL     -0.025302
     25 C11         5.7740   -5.6070    5.1130 c3        1 MOL     -0.036680
     26 C12         6.3380   -6.9690    4.8350 c3        1 MOL      0.040983
     27 N3          7.0410   -7.5470    5.9870 n4        1 MOL     -0.388237
     28 H8          5.8040   -2.4130    2.4540 hn        1 MOL      0.290458
     29 H9          3.7610   -4.3980    1.6870 h1        1 MOL     -0.018450
     30 H10         6.5900   -4.7470    2.8680 hc        1 MOL      0.005503
     31 H11         5.5370   -6.0630    2.2920 hc        1 MOL      0.005503
     32 H12         4.0320   -5.7790    4.0100 hc        1 MOL      0.024536
     33 H13         4.5410   -4.0740    4.3510 hc        1 MOL      0.024536
     34 H14         5.3480   -5.4570    6.1120 hc        1 MOL      0.025562
     35 H15         6.6120   -4.9180    5.1680 hc        1 MOL      0.025562
     36 H16         6.9400   -7.0390    3.9300 hx        1 MOL      0.093513
     37 H17         5.4350   -7.4570    4.4440 hx        1 MOL      0.093513
     38 H18         6.4580   -8.0360    6.6430 hn        1 MOL      0.325047
     39 H19         7.7670   -8.1750    5.6840 hn        1 MOL      0.325047
     40 H20         7.5240   -6.8910    6.5930 hn        1 MOL      0.325047
     41 N4          4.5920   -3.6380   -0.6390 n         1 MOL     -0.108720
     42 C13         4.6660   -3.5530   -2.1090 c3        1 MOL      0.168161
     43 C14         4.8040   -2.1230   -2.7790 c         1 MOL      0.408752
     44 O6          4.3440   -1.8420   -3.8620 o         1 MOL     -0.505485
     45 C15         3.6170   -4.5140   -2.7340 c3        1 MOL     -0.171459
     46 C16         2.1850   -4.3300   -2.3590 c         1 MOL      0.544296
     47 O7          1.7710   -3.2760   -1.8790 o         1 MOL     -0.694324
     48 O8          1.4730   -5.3420   -2.5040 o         1 MOL     -0.694324
     49 H21         3.9590   -3.0090   -0.1620 hn        1 MOL      0.160769
     50 H22         5.5990   -4.0310   -2.3880 h1        1 MOL      0.035451
     51 H23         3.8660   -5.5370   -2.4280 hc        1 MOL      0.062447
     52 H24         3.7830   -4.5120   -3.8070 hc        1 MOL      0.062447
     53 N5          5.3280   -1.1710   -1.9620 n         1 MOL     -0.336527
     54 C17         5.5450    0.2430   -2.4170 c3        1 MOL      0.277411
     55 C18         6.5640    0.4730   -3.4880 c         1 MOL      0.488344
     56 O9          7.4200   -0.4060   -3.6290 o         1 MOL     -0.514021
     57 H25         5.5230   -1.4880   -1.0280 hn        1 MOL      0.112426
     58 H26         5.7920    0.8750   -1.5620 h1        1 MOL      0.016792
     59 H27         4.5650    0.5300   -2.8040 h1        1 MOL      0.016792
     60 N6          6.5540    1.6410   -4.1350 n         1 MOL     -0.529131
     61 C19         5.7570    2.8360   -3.7720 c3        1 MOL      0.109301
     62 C20         6.1700    3.2650   -2.3780 c         1 MOL      0.358062
     63 O10         7.4240    3.3980   -2.1250 o         1 MOL     -0.471254
     64 C21         6.1790    4.0270   -4.7340 c3        1 MOL     -0.192494
     65 C22         5.7260    5.4680   -4.4800 c         1 MOL      0.707478
     66 N7          5.3720    6.0610   -5.5820 n         1 MOL     -0.838185
     67 O11         5.8410    6.0080   -3.4400 o         1 MOL     -0.518130
     68 H28         7.2120    1.7830   -4.8900 hn        1 MOL      0.314927
     69 H29         4.6930    2.6240   -3.8890 h1        1 MOL      0.055666
     70 H30         5.8310    3.7920   -5.7400 hc        1 MOL      0.063416
     71 H31         7.2630    4.1430   -4.7970 hc        1 MOL      0.063416
     72 H32         5.5000    5.5610   -6.4440 hn        1 MOL      0.370950
     73 H33         4.9520    6.9760   -5.5240 hn        1 MOL      0.370950
     74 N8          5.2710    3.6490   -1.4850 n         1 MOL     -0.335101
     75 C23         3.8040    3.5400   -1.6050 c3        1 MOL      0.110345
     76 C24         2.9680    4.2170   -0.5300 c         1 MOL      0.657292
     77 O12         3.5190    4.9010    0.3280 o         1 MOL     -0.522418
     78 H34         5.5390    4.1010   -0.6190 hn        1 MOL      0.291989
     79 H35         3.4420    2.5190   -1.4900 h1        1 MOL     -0.043101
     80 H36         3.4150    3.9430   -2.5450 h1        1 MOL     -0.043101
     81 N9          1.6530    3.9860   -0.6100 n         1 MOL     -0.566816
     82 C25         0.6330    4.5620    0.3250 c3        1 MOL      0.066674
     83 C26        -0.6290    3.6610    0.3330 c         1 MOL      0.614278
     84 O13        -0.9700    3.0440   -0.6760 o         1 MOL     -0.498485
     85 C27         0.3460    5.9560   -0.0720 c3        1 MOL     -0.208792
     86 C28        -0.1000    6.8580    1.1120 ca        1 MOL     -0.003171
     87 C29        -1.4920    7.2510    1.2100 ca        1 MOL     -0.088612
     88 C30         0.8290    7.3400    2.0900 ca        1 MOL     -0.088612
     89 C31        -1.9450    8.1060    2.2230 ca        1 MOL     -0.348107
     90 C32         0.3990    8.1680    3.1330 ca        1 MOL     -0.348107
     91 C33        -1.0070    8.5260    3.2120 ca        1 MOL      0.399659
     92 O14        -1.4090    9.1970    4.3130 oh        1 MOL     -0.495136
     93 H37         1.2820    3.4270   -1.3620 hn        1 MOL      0.297023
     94 H38         1.0640    4.5480    1.3250 h1        1 MOL      0.059543
     95 H39        -0.3930    5.8910   -0.8740 hc        1 MOL      0.104226
     96 H40         1.1950    6.4990   -0.4850 hc        1 MOL      0.104226
     97 H41        -2.2020    6.7940    0.5290 ha        1 MOL      0.133795
     98 H42         1.8750    7.0950    1.9580 ha        1 MOL      0.133795
     99 H43        -2.9760    8.4200    2.2690 ha        1 MOL      0.171848
    100 H44         1.1150    8.5040    3.8710 ha        1 MOL      0.171848
    101 H45        -0.6560    9.3120    4.8930 ho        1 MOL      0.363267
    102 N10        -1.3470    3.7920    1.4910 n         1 MOL     -0.429175
    103 C34        -2.6090    3.2100    1.8050 c3        1 MOL     -0.471814
    104 C35        -3.7120    3.6500    0.7680 c         1 MOL      0.645443
    105 O15        -3.6770    4.7880    0.2310 o         1 MOL     -0.493295
    106 C36        -3.0630    3.4450    3.2700 c3        1 MOL      0.287865
    107 C37        -2.2860    2.4850    4.2020 c3        1 MOL      0.024667
    108 C38        -2.8910    4.9340    3.6780 c3        1 MOL     -0.186618
    109 C39        -2.7950    2.5240    5.6860 c3        1 MOL     -0.213257
    110 H46        -0.9830    4.3970    2.2140 hn        1 MOL      0.297117
    111 H47        -2.4660    2.1510    1.5820 h1        1 MOL      0.201339
    112 H48        -4.1260    3.2510    3.4410 hc        1 MOL     -0.003961
    113 H49        -1.2350    2.7550    4.1800 hc        1 MOL      0.012434
    114 H50        -2.4650    1.4860    3.8060 hc        1 MOL      0.012434
    115 H51        -3.3040    5.2690    4.6310 hc        1 MOL      0.056425
    116 H52        -1.8410    5.2040    3.5810 hc        1 MOL      0.056425
    117 H53        -3.2970    5.4440    2.8070 hc        1 MOL      0.056425
    118 H54        -3.8050    2.1200    5.7450 hc        1 MOL      0.052958
    119 H55        -2.1060    1.9860    6.3380 hc        1 MOL      0.052958
    120 H56        -2.8290    3.5870    5.9140 hc        1 MOL      0.052958
    121 N11        -4.7060    2.7430    0.4790 n         1 MOL     -0.402902
    122 C40        -5.8210    2.9240   -0.4750 c3        1 MOL      0.060159
    123 C41        -6.1500    1.6260   -1.2720 c         1 MOL      0.420893
    124 O16        -5.6310    0.5320   -0.9350 o         1 MOL     -0.382623
    125 C42        -7.0160    3.4200    0.2570 c3        1 MOL      0.073302
    126 O17        -7.4440    2.4350    1.1970 oh        1 MOL     -0.598203
    127 H57        -4.6110    1.7550    0.7000 hn        1 MOL      0.247662
    128 H58        -5.5030    3.7470   -1.1250 h1        1 MOL      0.051631
    129 H59        -7.8490    3.6060   -0.4280 h1        1 MOL      0.036013
    130 H60        -6.7910    4.3630    0.7470 h1        1 MOL      0.036013
    131 H61        -8.2380    2.7250    1.6420 ho        1 MOL      0.419077
    132 N12        -6.9050    1.7520   -2.3800 n         1 MOL     -0.389605
    133 C43        -7.2980    0.6480   -3.2410 c3        1 MOL      0.092853
    134 C44        -8.1410   -0.4610   -2.5530 c         1 MOL      0.527339
    135 O18        -8.2430   -1.6290   -3.0130 o         1 MOL     -0.485237
    136 C45        -6.1270    0.2540   -4.1500 c3        1 MOL     -0.328044
    137 H62        -7.3410    2.6390   -2.6130 hn        1 MOL      0.274837
    138 H63        -8.0920    1.1620   -3.7860 h1        1 MOL      0.063913
    139 H64        -5.2470   -0.0870   -3.6080 hc        1 MOL      0.108147
    140 H65        -6.4600   -0.5080   -4.8480 hc        1 MOL      0.108147
    141 H66        -5.7890    1.1490   -4.6820 hc        1 MOL      0.108147
    142 N13        -8.8740   -0.0800   -1.4890 n         1 MOL     -0.622103
    143 C46        -9.7610   -0.9400   -0.6570 c3        1 MOL      0.200782
    144 C47        -9.2140   -2.2670   -0.2350 c         1 MOL      0.430579
    145 O19        -9.9600   -3.0970    0.3480 o         1 MOL     -0.545135
    146 C48       -11.1800   -1.0620   -1.3100 c3        1 MOL     -0.348142
    147 H67        -8.8920    0.9100   -1.2500 hn        1 MOL      0.337403
    148 H68        -9.9680   -0.3800    0.2500 h1        1 MOL      0.047379
    149 H69       -11.0780   -1.6380   -2.2320 hc        1 MOL      0.108935
    150 H70       -11.8790   -1.6680   -0.7290 hc        1 MOL      0.108935
    151 H71       -11.5530   -0.0590   -1.5030 hc        1 MOL      0.108935
    152 N14        -7.9190   -2.5800   -0.2960 n         1 MOL     -0.112198
    153 C49        -7.3370   -3.9190    0.0730 c3        1 MOL     -0.183176
    154 C50        -7.2880   -4.2520    1.5250 c         1 MOL      0.527849
    155 O20        -7.1370   -5.4050    1.9040 o         1 MOL     -0.552673
    156 C51        -6.0200   -4.0260   -0.6250 c3        1 MOL      0.102830
    157 C52        -4.9070   -3.0410   -0.1360 c3        1 MOL      0.137316
    158 C53        -3.5600   -3.3560   -0.7660 c         1 MOL      0.577140
    159 O21        -2.5720   -2.9720   -0.1320 o         1 MOL     -0.737699
    160 O22        -3.3790   -3.9410   -1.8530 o         1 MOL     -0.737699
    161 H72        -7.2030   -1.9200   -0.6030 hn        1 MOL      0.097969
    162 H73        -7.9600   -4.7310   -0.3200 h1        1 MOL      0.131426
    163 H74        -6.2060   -4.1480   -1.6900 hc        1 MOL     -0.005526
    164 H75        -5.6920   -5.0240   -0.3310 hc        1 MOL     -0.005526
    165 H76        -4.8180   -3.1490    0.9490 hc        1 MOL     -0.048007
    166 H77        -5.1420   -2.0000   -0.3310 hc        1 MOL     -0.048007
    167 N15        -7.3900   -3.2560    2.3640 n         1 MOL     -0.202290
    168 C54        -7.6220   -3.4170    3.7660 c3        1 MOL     -0.144614
    169 H78        -7.1650   -2.5880    4.3070 h1        1 MOL      0.075982
    170 H79        -8.6940   -3.4280    3.9580 h1        1 MOL      0.075982
    171 H80        -7.1810   -4.3550    4.1020 h1        1 MOL      0.075982
    172 H81        -7.6310   -2.3530    1.9750 hn        1 MOL      0.175295
    173 Ca1        -0.6840   -3.8250   -1.9400 Ca        1 MOL      1.761792
    174 O23        -0.3360   -3.6280   -4.5460 oh        1 MOL     -0.823036
    175 H82         0.4550   -3.2220   -4.8870 ho        1 MOL      0.410658
    176 H83        -0.5890   -4.2540   -5.2380 ho        1 MOL      0.410658
    177 O24        -0.8130   -5.9690   -0.3250 oh        1 MOL     -0.823036
    178 H84        -1.2500   -6.8200   -0.2550 ho        1 MOL      0.410658
    179 H85        -0.9320   -5.5560    0.5310 ho        1 MOL      0.410658
    180 O25        -1.5520   -6.0330   -3.3100 oh        1 MOL     -0.823036
    181 H86        -0.8690   -6.5880   -3.6800 ho        1 MOL      0.410658
    182 H87        -2.3740   -6.4180   -3.6220 ho        1 MOL      0.410658
    183 O26         0.4340   -3.2340    0.5370 oh        1 MOL     -0.823036
    184 H88         1.1880   -2.7690    0.1630 ho        1 MOL      0.410658
    185 H89         0.7650   -3.6070    1.3610 ho        1 MOL      0.410658
    186 O27        -0.8760   -1.0850   -2.3680 oh        1 MOL     -0.823036
    187 H90        -1.1170   -0.4480   -1.6930 ho        1 MOL      0.410658
    188 H91        -1.0260   -0.6300   -3.1970 ho        1 MOL      0.410658
@<TRIPOS>BOND
     1    1    2 1   
     2    1    4 1   
     3    1    5 1   
     4    1    6 1   
     5    2    3 2   
     6    2    7 1   
     7    7    8 1   
     8    7   15 1   
     9    8    9 1   
    10    8   11 1   
    11    8   16 1   
    12    9   10 2   
    13    9   19 1   
    14   11   12 1   
    15   11   17 1   
    16   11   18 1   
    17   12   13 1   
    18   12   14 1   
    19   19   20 1   
    20   19   28 1   
    21   20   21 1   
    22   20   23 1   
    23   20   29 1   
    24   21   22 2   
    25   21   41 1   
    26   23   24 1   
    27   23   30 1   
    28   23   31 1   
    29   24   25 1   
    30   24   32 1   
    31   24   33 1   
    32   25   26 1   
    33   25   34 1   
    34   25   35 1   
    35   26   27 1   
    36   26   36 1   
    37   26   37 1   
    38   27   38 1   
    39   27   39 1   
    40   27   40 1   
    41   41   42 1   
    42   41   49 1   
    43   42   43 1   
    44   42   45 1   
    45   42   50 1   
    46   43   44 2   
    47   43   53 1   
    48   45   46 1   
    49   45   51 1   
    50   45   52 1   
    51   46   47 1   
    52   46   48 1   
    53   53   54 1   
    54   53   57 1   
    55   54   55 1   
    56   54   58 1   
    57   54   59 1   
    58   55   56 2   
    59   55   60 1   
    60   60   61 1   
    61   60   68 1   
    62   61   62 1   
    63   61   64 1   
    64   61   69 1   
    65   62   63 2   
    66   62   74 1   
    67   64   65 1   
    68   64   70 1   
    69   64   71 1   
    70   65   66 1   
    71   65   67 2   
    72   66   72 1   
    73   66   73 1   
    74   74   75 1   
    75   74   78 1   
    76   75   76 1   
    77   75   79 1   
    78   75   80 1   
    79   76   77 2   
    80   76   81 1   
    81   81   82 1   
    82   81   93 1   
    83   82   83 1   
    84   82   85 1   
    85   82   94 1   
    86   83   84 2   
    87   83  102 1   
    88   85   86 1   
    89   85   95 1   
    90   85   96 1   
    91   86   87 ar  
    92   86   88 ar  
    93   87   89 ar  
    94   87   97 1   
    95   88   90 ar  
    96   88   98 1   
    97   89   91 ar  
    98   89   99 1   
    99   90   91 ar  
   100   90  100 1   
   101   91   92 1   
   102   92  101 1   
   103  102  103 1   
   104  102  110 1   
   105  103  104 1   
   106  103  106 1   
   107  103  111 1   
   108  104  105 2   
   109  104  121 1   
   110  106  107 1   
   111  106  108 1   
   112  106  112 1   
   113  107  109 1   
   114  107  113 1   
   115  107  114 1   
   116  108  115 1   
   117  108  116 1   
   118  108  117 1   
   119  109  118 1   
   120  109  119 1   
   121  109  120 1   
   122  121  122 1   
   123  121  127 1   
   124  122  123 1   
   125  122  125 1   
   126  122  128 1   
   127  123  124 2   
   128  123  132 1   
   129  125  126 1   
   130  125  129 1   
   131  125  130 1   
   132  126  131 1   
   133  132  133 1   
   134  132  137 1   
   135  133  134 1   
   136  133  136 1   
   137  133  138 1   
   138  134  135 2   
   139  134  142 1   
   140  136  139 1   
   141  136  140 1   
   142  136  141 1   
   143  142  143 1   
   144  142  147 1   
   145  143  144 1   
   146  143  146 1   
   147  143  148 1   
   148  144  145 2   
   149  144  152 1   
   150  146  149 1   
   151  146  150 1   
   152  146  151 1   
   153  152  153 1   
   154  152  161 1   
   155  153  154 1   
   156  153  156 1   
   157  153  162 1   
   158  154  155 2   
   159  154  167 1   
   160  156  157 1   
   161  156  163 1   
   162  156  164 1   
   163  157  158 1   
   164  157  165 1   
   165  157  166 1   
   166  158  159 1   
   167  158  160 1   
   168  167  168 1   
   169  167  172 1   
   170  168  169 1   
   171  168  170 1   
   172  168  171 1   
   173  174  175 1   
   174  174  176 1   
   175  177  178 1   
   176  177  179 1   
   177  180  181 1   
   178  180  182 1   
   179  183  184 1   
   180  183  185 1   
   181  186  187 1   
   182  186  188 1   
@<TRIPOS>SUBSTRUCTURE
     1 MOL         1 TEMP              0 ****  ****    0 ROOT
