@<TRIPOS>MOLECULE
MOL
  184   179     1     0     0
SMALL
resp


@<TRIPOS>ATOM
      1 C1          0.8850   -4.4850    3.7370 c3        1 MOL     -0.242045
      2 C2          2.3900   -3.9730    3.6910 c         1 MOL      0.697976
      3 O1          2.6710   -2.8580    4.0850 o         1 MOL     -0.608586
      4 H1          0.2110   -3.6280    3.7530 hc        1 MOL      0.054843
      5 H2          0.6800   -5.0920    2.8560 hc        1 MOL      0.054843
      6 H3          0.7320   -5.0840    4.6350 hc        1 MOL      0.054843
      7 N1          3.3150   -4.7910    3.1230 n         1 MOL     -0.644872
      8 C3          4.7860   -4.5130    3.1580 c3        1 MOL      0.261902
      9 C4          5.0790   -3.9450    1.7230 c         1 MOL      0.520839
     10 O2          4.5920   -4.4590    0.7380 o         1 MOL     -0.535779
     11 C5          5.4140   -5.9030    3.2690 c3        1 MOL     -0.120966
     12 C6          6.9210   -5.8870    3.6460 c         1 MOL      0.666045
     13 O3          7.3900   -6.8960    4.2800 o         1 MOL     -0.722781
     14 O4          7.5320   -4.8480    3.3960 o         1 MOL     -0.722781
     15 H4          3.0650   -5.7160    2.7950 hn        1 MOL      0.322572
     16 H5          5.0650   -3.9130    4.0260 h1        1 MOL      0.047761
     17 H6          5.1920   -6.4430    2.3450 hc        1 MOL     -0.017058
     18 H7          4.8590   -6.4450    4.0320 hc        1 MOL     -0.017058
     19 N2          5.8400   -2.8430    1.6310 n         1 MOL     -0.417553
     20 C7          6.2640   -2.1750    0.4140 c3        1 MOL      0.096270
     21 C8          5.1300   -1.3450   -0.2850 c         1 MOL      0.569910
     22 O5          4.5970   -0.3930    0.2600 o         1 MOL     -0.612272
     23 C9          7.4490   -1.3060    0.6630 c3        1 MOL     -0.222784
     24 H8          6.1200   -2.4770    2.5330 hn        1 MOL      0.259104
     25 H9          6.5260   -3.0060   -0.2310 h1        1 MOL      0.090488
     26 H10         7.3730   -0.3930    1.2520 hc        1 MOL      0.068786
     27 H11         8.2010   -1.8820    1.2110 hc        1 MOL      0.068786
     28 H12         7.9050   -1.0590   -0.2870 hc        1 MOL      0.068786
     29 N3          4.8130   -1.5140   -1.5670 n         1 MOL     -0.447634
     30 C10         3.7870   -0.7760   -2.2740 c3        1 MOL      0.233660
     31 C11         4.2840    0.6020   -2.8780 c         1 MOL      0.429408
     32 O6          3.6570    1.1280   -3.8070 o         1 MOL     -0.536580
     33 C12         3.1340   -1.6830   -3.2870 c3        1 MOL     -0.199478
     34 C13         4.1600   -2.4930   -4.0670 c         1 MOL      0.663272
     35 O7          4.8110   -3.3610   -3.4540 o         1 MOL     -0.698141
     36 O8          4.2030   -2.3510   -5.3160 o         1 MOL     -0.698141
     37 H13         5.2000   -2.2550   -2.1310 hn        1 MOL      0.209338
     38 H14         3.0030   -0.4420   -1.5910 h1        1 MOL      0.032023
     39 H15         2.4170   -1.2200   -3.9730 hc        1 MOL      0.061247
     40 H16         2.4410   -2.3670   -2.8130 hc        1 MOL      0.061247
     41 N4          5.4570    1.0520   -2.3890 n         1 MOL     -0.307772
     42 C14         6.3410    2.0160   -3.1000 c3        1 MOL     -0.071451
     43 C15         6.0110    3.4780   -3.0280 c         1 MOL      0.481547
     44 O9          6.9240    4.2560   -2.6590 o         1 MOL     -0.574722
     45 H17         5.8800    0.5700   -1.5980 hn        1 MOL      0.260368
     46 H18         6.2710    1.8520   -4.1760 h1        1 MOL      0.076222
     47 H19         7.3740    1.9610   -2.7480 h1        1 MOL      0.076222
     48 N5          4.8010    3.9010   -3.2540 n         1 MOL     -0.335726
     49 C16         4.3060    5.2730   -3.3070 c3        1 MOL      0.125676
     50 C17         4.0020    5.8280   -1.9230 c         1 MOL      0.436816
     51 O10         3.8330    7.0500   -1.8580 o         1 MOL     -0.510405
     52 C18         3.1120    5.2200   -4.2540 c3        1 MOL     -0.334176
     53 C19         2.6940    6.5010   -4.9030 c         1 MOL      0.709518
     54 N6          3.4550    7.0120   -5.8430 n         1 MOL     -0.838801
     55 O11         1.8780    7.3140   -4.4940 o         1 MOL     -0.547227
     56 H20         4.1900    3.1540   -3.5380 hn        1 MOL      0.252654
     57 H21         5.0620    5.9230   -3.7440 h1        1 MOL      0.054256
     58 H22         2.2330    4.7370   -3.8100 hc        1 MOL      0.109494
     59 H23         3.4070    4.6200   -5.1120 hc        1 MOL      0.109494
     60 H24         4.3670    6.6220   -6.0150 hn        1 MOL      0.364869
     61 H25         3.3820    8.0180   -5.9470 hn        1 MOL      0.364869
     62 N7          3.9430    4.9780   -0.9230 n         1 MOL     -0.230203
     63 C20         3.9860    5.1100    0.5760 c3        1 MOL     -0.018999
     64 C21         2.5060    5.2280    1.1960 c         1 MOL      0.481151
     65 O12         1.4790    5.0490    0.5780 o         1 MOL     -0.437709
     66 H26         4.0460    4.0300   -1.2470 hn        1 MOL      0.178611
     67 H27         4.6560    5.9670    0.7260 h1        1 MOL      0.070703
     68 H28         4.4920    4.3400    1.1580 h1        1 MOL      0.070703
     69 N8          2.4950    5.6930    2.4790 n         1 MOL     -0.378176
     70 C22         1.1700    6.0330    3.0970 c3        1 MOL     -0.265119
     71 C23         0.1070    4.8690    3.2490 c         1 MOL      0.505842
     72 O13        -1.0960    5.2100    3.2160 o         1 MOL     -0.556796
     73 C24         1.2480    6.8610    4.4540 c3        1 MOL      0.428142
     74 C25         1.5620    6.0630    5.7460 c3        1 MOL     -0.187780
     75 O14         2.2380    7.8790    4.4240 oh        1 MOL     -0.649530
     76 H29         3.3160    6.0280    2.9710 hn        1 MOL      0.229742
     77 H30         0.6850    6.6910    2.3700 h1        1 MOL      0.166362
     78 H31         0.2690    7.3340    4.5780 h1        1 MOL      0.033088
     79 H32         3.1260    7.5180    4.3060 ho        1 MOL      0.398629
     80 H33         2.3680    5.3530    5.5650 hc        1 MOL      0.040724
     81 H34         2.0020    6.7080    6.4960 hc        1 MOL      0.040724
     82 H35         0.6660    5.6520    6.2130 hc        1 MOL      0.040724
     83 N9          0.5470    3.6390    3.3500 n         1 MOL     -0.222000
     84 C26        -0.3070    2.4780    3.5450 c3        1 MOL      0.072879
     85 C27        -0.2790    1.4200    2.3850 c         1 MOL      0.413926
     86 O15         0.7180    1.2560    1.6310 o         1 MOL     -0.456047
     87 C28        -0.0960    1.7900    4.9500 c3        1 MOL      0.153130
     88 C29        -0.1410    2.6640    6.2020 c3        1 MOL     -0.082361
     89 C30        -1.1360    0.6690    5.0780 c3        1 MOL     -0.238745
     90 C31        -1.3590    3.4580    6.3910 c3        1 MOL     -0.157654
     91 H36         1.5500    3.5110    3.4430 hn        1 MOL      0.192571
     92 H37        -1.2960    2.9240    3.6370 h1        1 MOL      0.056234
     93 H38         0.9230    1.4090    4.9160 hc        1 MOL      0.003312
     94 H39         0.7010    3.3400    6.1300 hc        1 MOL      0.026731
     95 H40         0.0320    1.9920    7.0440 hc        1 MOL      0.026731
     96 H41        -0.8870   -0.1100    4.3480 hc        1 MOL      0.061323
     97 H42        -1.0720    0.1450    6.0230 hc        1 MOL      0.061323
     98 H43        -2.1260    1.0310    4.8040 hc        1 MOL      0.061323
     99 H44        -2.2440    2.8700    6.6220 hc        1 MOL      0.036761
    100 H45        -1.1900    4.0600    7.2860 hc        1 MOL      0.036761
    101 H46        -1.4850    4.0660    5.4880 hc        1 MOL      0.036761
    102 N10        -1.4990    1.0050    2.0770 n         1 MOL     -0.483068
    103 C32        -1.7400    0.0720    0.9480 c3        1 MOL      0.270625
    104 C33        -3.0810    0.2330    0.1540 c         1 MOL      0.356708
    105 O16        -3.5670   -0.6750   -0.6000 o         1 MOL     -0.425535
    106 C34        -1.5390   -1.3860    1.3250 c3        1 MOL     -0.152774
    107 C35        -1.0790   -2.3670    0.2150 c         1 MOL      0.784384
    108 O17        -0.8300   -3.5370    0.3820 o         1 MOL     -0.793331
    109 O18        -0.7830   -2.0020   -0.9400 o         1 MOL     -0.793331
    110 H47        -2.2510    1.0770    2.7520 hn        1 MOL      0.283441
    111 H48        -0.9620    0.2730    0.1990 h1        1 MOL      0.053013
    112 H49        -2.4290   -1.7770    1.8190 hc        1 MOL      0.033668
    113 H50        -0.7830   -1.4280    2.1170 hc        1 MOL      0.033668
    114 N11        -3.7800    1.3390    0.4050 n         1 MOL     -0.387095
    115 C36        -5.0120    1.6860   -0.2410 c3        1 MOL      0.247112
    116 C37        -6.1140    0.5740   -0.1550 c         1 MOL      0.246149
    117 O19        -6.4030    0.0150    0.9480 o         1 MOL     -0.505457
    118 C38        -5.5540    2.9510    0.4130 c3        1 MOL     -0.166443
    119 C39        -6.7880    3.5180   -0.2640 ca        1 MOL      0.004816
    120 C40        -6.5700    4.1820   -1.4890 ca        1 MOL     -0.088622
    121 C41        -8.1260    3.2690    0.1990 ca        1 MOL     -0.088622
    122 C42        -7.6270    4.7110   -2.1730 ca        1 MOL     -0.152943
    123 C43        -9.1660    3.7730   -0.5610 ca        1 MOL     -0.152943
    124 C44        -8.9040    4.3870   -1.7830 ca        1 MOL     -0.060051
    125 H51        -3.4040    1.9890    1.0820 hn        1 MOL      0.216155
    126 H52        -4.8030    1.9360   -1.2730 h1        1 MOL      0.014219
    127 H53        -4.7560    3.6960    0.4310 hc        1 MOL      0.069134
    128 H54        -5.8870    2.7640    1.4330 hc        1 MOL      0.069134
    129 H55        -5.5460    4.3500   -1.7750 ha        1 MOL      0.120653
    130 H56        -8.2600    2.7630    1.1400 ha        1 MOL      0.120653
    131 H57        -7.3160    5.2730   -3.0450 ha        1 MOL      0.113357
    132 H58       -10.1910    3.5570   -0.2990 ha        1 MOL      0.113357
    133 H59        -9.7320    4.8130   -2.3430 ha        1 MOL      0.080614
    134 N12        -6.6990    0.2370   -1.2880 n         1 MOL      0.039197
    135 C45        -7.8180   -0.7460   -1.4210 c3        1 MOL     -0.050642
    136 C46        -7.7360   -2.1240   -0.6930 c         1 MOL      0.253791
    137 O20        -8.7860   -2.7360   -0.3900 o         1 MOL     -0.511059
    138 C47        -8.0930   -0.8570   -2.9010 c3        1 MOL      0.138052
    139 C48        -7.7300    0.5460   -3.3370 c3        1 MOL     -0.118246
    140 C49        -6.5000    0.8260   -2.5420 c3        1 MOL      0.042154
    141 H60        -8.6510   -0.2480   -0.9220 h1        1 MOL      0.065345
    142 H61        -7.5670   -1.7350   -3.2950 hc        1 MOL     -0.000745
    143 H62        -9.1370   -1.0870   -3.1150 hc        1 MOL     -0.000745
    144 H63        -7.5010    0.3790   -4.3930 hc        1 MOL      0.029045
    145 H64        -8.5730    1.2240   -3.1980 hc        1 MOL      0.029045
    146 H65        -5.6500    0.2930   -2.9820 h1        1 MOL      0.015621
    147 H66        -6.3400    1.9060   -2.5890 h1        1 MOL      0.015621
    148 N13        -6.5250   -2.5830   -0.4700 n         1 MOL     -0.016969
    149 C50        -6.0980   -3.8480    0.0870 c3        1 MOL     -0.048482
    150 C51        -6.1690   -3.7500    1.6500 c         1 MOL      0.398605
    151 O21        -6.4890   -4.7600    2.2710 o         1 MOL     -0.537475
    152 C52        -4.6330   -4.2390   -0.3320 c3        1 MOL      0.127818
    153 C53        -4.4160   -4.6320   -1.7490 c3        1 MOL     -0.223726
    154 C54        -2.9370   -4.6120   -2.1420 c         1 MOL      0.656021
    155 O22        -2.1460   -5.4930   -1.7410 o         1 MOL     -0.692658
    156 O23        -2.5010   -3.6200   -2.7920 o         1 MOL     -0.692658
    157 H67        -5.7510   -1.9850   -0.7060 hn        1 MOL      0.139809
    158 H68        -6.8570   -4.5970   -0.1520 h1        1 MOL      0.075037
    159 H69        -4.2950   -5.0570    0.3020 hc        1 MOL     -0.000583
    160 H70        -3.9640   -3.4320   -0.0270 hc        1 MOL     -0.000583
    161 H71        -5.0330   -3.9470   -2.3330 hc        1 MOL      0.020257
    162 H72        -4.8380   -5.6340   -1.8640 hc        1 MOL      0.020257
    163 N14        -5.9610   -2.5250    2.1740 n         1 MOL     -0.098865
    164 C55        -6.0600   -2.2150    3.6020 c3        1 MOL     -0.351995
    165 H73        -7.0690   -2.4340    3.9510 h1        1 MOL      0.123032
    166 H74        -5.3440   -2.8210    4.1570 h1        1 MOL      0.123032
    167 H75        -5.8440   -1.1580    3.7600 h1        1 MOL      0.123032
    168 H76        -5.7120   -1.8640    1.4610 hn        1 MOL      0.167263
    169 Ca1         0.0560   -4.1770   -1.9330 Ca        1 MOL      1.820449
    170 O24         2.0980   -3.6550   -0.1460 oh        1 MOL     -0.835669
    171 H77         2.0830   -2.8630    0.3970 ho        1 MOL      0.404569
    172 H78         2.9590   -4.0370    0.0250 ho        1 MOL      0.404569
    173 O25        -0.4080   -5.7650   -4.1300 oh        1 MOL     -0.835669
    174 H79        -0.5550   -6.6980   -4.2930 ho        1 MOL      0.404569
    175 H80         0.1100   -5.4710   -4.8870 ho        1 MOL      0.404569
    176 O26         1.1660   -6.6450   -1.2720 oh        1 MOL     -0.835669
    177 H81         1.9560   -6.5650   -0.7300 ho        1 MOL      0.404569
    178 H82         1.0870   -7.5730   -1.4600 ho        1 MOL      0.404569
    179 O27         2.3940   -4.9520   -3.2110 oh        1 MOL     -0.835669
    180 H83         3.2410   -4.5310   -3.3590 ho        1 MOL      0.404569
    181 H84         2.3600   -5.6540   -3.8670 ho        1 MOL      0.404569
    182 O28         0.2380   -2.7000   -4.2810 oh        1 MOL     -0.835669
    183 H85         0.3110   -3.1560   -5.1160 ho        1 MOL      0.404569
    184 H86        -0.1440   -1.8510   -4.4910 ho        1 MOL      0.404569
@<TRIPOS>BOND
     1    1    2 1   
     2    1    4 1   
     3    1    5 1   
     4    1    6 1   
     5    2    3 2   
     6    2    7 1   
     7    7    8 1   
     8    7   15 1   
     9    8    9 1   
    10    8   11 1   
    11    8   16 1   
    12    9   10 2   
    13    9   19 1   
    14   11   12 1   
    15   11   17 1   
    16   11   18 1   
    17   12   13 1   
    18   12   14 1   
    19   19   20 1   
    20   19   24 1   
    21   20   21 1   
    22   20   23 1   
    23   20   25 1   
    24   21   22 2   
    25   21   29 1   
    26   23   26 1   
    27   23   27 1   
    28   23   28 1   
    29   29   30 1   
    30   29   37 1   
    31   30   31 1   
    32   30   33 1   
    33   30   38 1   
    34   31   32 2   
    35   31   41 1   
    36   33   34 1   
    37   33   39 1   
    38   33   40 1   
    39   34   35 1   
    40   34   36 1   
    41   41   42 1   
    42   41   45 1   
    43   42   43 1   
    44   42   46 1   
    45   42   47 1   
    46   43   44 2   
    47   43   48 1   
    48   48   49 1   
    49   48   56 1   
    50   49   50 1   
    51   49   52 1   
    52   49   57 1   
    53   50   51 2   
    54   50   62 1   
    55   52   53 1   
    56   52   58 1   
    57   52   59 1   
    58   53   54 1   
    59   53   55 2   
    60   54   60 1   
    61   54   61 1   
    62   62   63 1   
    63   62   66 1   
    64   63   64 1   
    65   63   67 1   
    66   63   68 1   
    67   64   65 2   
    68   64   69 1   
    69   69   70 1   
    70   69   76 1   
    71   70   71 1   
    72   70   73 1   
    73   70   77 1   
    74   71   72 2   
    75   71   83 1   
    76   73   74 1   
    77   73   75 1   
    78   73   78 1   
    79   74   80 1   
    80   74   81 1   
    81   74   82 1   
    82   75   79 1   
    83   83   84 1   
    84   83   91 1   
    85   84   85 1   
    86   84   87 1   
    87   84   92 1   
    88   85   86 2   
    89   85  102 1   
    90   87   88 1   
    91   87   89 1   
    92   87   93 1   
    93   88   90 1   
    94   88   94 1   
    95   88   95 1   
    96   89   96 1   
    97   89   97 1   
    98   89   98 1   
    99   90   99 1   
   100   90  100 1   
   101   90  101 1   
   102  102  103 1   
   103  102  110 1   
   104  103  104 1   
   105  103  106 1   
   106  103  111 1   
   107  104  105 2   
   108  104  114 1   
   109  106  107 1   
   110  106  112 1   
   111  106  113 1   
   112  107  108 1   
   113  107  109 1   
   114  114  115 1   
   115  114  125 1   
   116  115  116 1   
   117  115  118 1   
   118  115  126 1   
   119  116  117 2   
   120  116  134 1   
   121  118  119 1   
   122  118  127 1   
   123  118  128 1   
   124  119  120 ar  
   125  119  121 ar  
   126  120  122 ar  
   127  120  129 1   
   128  121  123 ar  
   129  121  130 1   
   130  122  124 ar  
   131  122  131 1   
   132  123  124 ar  
   133  123  132 1   
   134  124  133 1   
   135  134  135 1   
   136  134  140 1   
   137  135  136 1   
   138  135  138 1   
   139  135  141 1   
   140  136  137 2   
   141  136  148 1   
   142  138  139 1   
   143  138  142 1   
   144  138  143 1   
   145  139  140 1   
   146  139  144 1   
   147  139  145 1   
   148  140  146 1   
   149  140  147 1   
   150  148  149 1   
   151  148  157 1   
   152  149  150 1   
   153  149  152 1   
   154  149  158 1   
   155  150  151 2   
   156  150  163 1   
   157  152  153 1   
   158  152  159 1   
   159  152  160 1   
   160  153  154 1   
   161  153  161 1   
   162  153  162 1   
   163  154  155 1   
   164  154  156 1   
   165  163  164 1   
   166  163  168 1   
   167  164  165 1   
   168  164  166 1   
   169  164  167 1   
   170  170  171 1   
   171  170  172 1   
   172  173  174 1   
   173  173  175 1   
   174  176  177 1   
   175  176  178 1   
   176  179  180 1   
   177  179  181 1   
   178  182  183 1   
   179  182  184 1   
@<TRIPOS>SUBSTRUCTURE
     1 MOL         1 TEMP              0 ****  ****    0 ROOT
