@<TRIPOS>MOLECULE
MOL
  181   177     1     0     0
SMALL
resp


@<TRIPOS>ATOM
      1 C1          9.9050    7.1880   -1.1220 c3        1 MOL     -0.350244
      2 C2          8.9010    6.0830   -0.9770 c         1 MOL      0.518300
      3 O1          7.7210    6.2020   -0.5330 o         1 MOL     -0.546032
      4 H1         10.9100    6.7840   -1.0040 hc        1 MOL      0.103268
      5 H2          9.8090    7.6400   -2.1090 hc        1 MOL      0.103268
      6 H3          9.7260    7.9440   -0.3580 hc        1 MOL      0.103268
      7 N1          9.2230    4.8090   -1.2560 n         1 MOL     -0.343740
      8 C3         10.4640    4.2490   -1.7740 c3        1 MOL      0.036024
      9 C4         11.4310    3.7450   -0.6880 c         1 MOL      0.576506
     10 O2         12.6510    3.7260   -0.9230 o         1 MOL     -0.614194
     11 C5         10.1740    3.1160   -2.8210 c3        1 MOL     -0.284063
     12 C6          9.0830    2.1020   -2.2410 c         1 MOL      0.879037
     13 O3          8.7920    2.0090   -1.0240 o         1 MOL     -0.805152
     14 O4          8.5630    1.3120   -3.0440 o         1 MOL     -0.805152
     15 H4          8.4150    4.2060   -1.2070 hn        1 MOL      0.223140
     16 H5         11.0090    5.0390   -2.2890 h1        1 MOL      0.057217
     17 H6         11.0860    2.5670   -3.0610 hc        1 MOL      0.085396
     18 H7          9.7850    3.5870   -3.7150 hc        1 MOL      0.085396
     19 N2         10.8870    3.3600    0.4260 n         1 MOL     -0.444316
     20 C7         11.6170    2.8940    1.5930 c3        1 MOL      0.279367
     21 C8         11.1580    1.5370    2.0840 c         1 MOL      0.310648
     22 O5         11.6620    1.0530    3.1020 o         1 MOL     -0.553598
     23 C9         11.5190    4.0260    2.6870 c3        1 MOL     -0.294378
     24 H8          9.8790    3.3680    0.4370 hn        1 MOL      0.316299
     25 H9         12.6790    2.8230    1.3530 h1        1 MOL      0.046240
     26 H10        11.8050    4.9880    2.2570 hc        1 MOL      0.085108
     27 H11        10.4780    4.0540    3.0090 hc        1 MOL      0.085108
     28 H12        12.0980    3.7190    3.5640 hc        1 MOL      0.085108
     29 N3         10.1740    0.8340    1.5590 n         1 MOL     -0.148233
     30 C10         9.4360   -0.2910    2.1670 c3        1 MOL      0.058953
     31 C11         9.0000   -1.2620    1.0160 c         1 MOL      0.274460
     32 O6          8.9800   -0.9550   -0.2150 o         1 MOL     -0.439012
     33 C12         8.2810    0.4310    2.9200 c3        1 MOL     -0.148399
     34 C13         7.2830    1.2940    2.0760 c         1 MOL      0.681482
     35 O7          6.9050    2.4280    2.4670 o         1 MOL     -0.666732
     36 O8          6.7550    0.7530    1.0750 o         1 MOL     -0.666732
     37 H13         9.8110    1.1800    0.6720 hn        1 MOL      0.119813
     38 H14        10.0380   -0.8720    2.8550 h1        1 MOL      0.056696
     39 H15         8.7250    1.0320    3.7200 hc        1 MOL      0.043822
     40 H16         7.6790   -0.3630    3.3700 hc        1 MOL      0.043822
     41 N4          8.5560   -2.4640    1.3950 n         1 MOL     -0.213933
     42 C14         8.3430   -3.4760    0.2840 c3        1 MOL     -0.158836
     43 C15         7.0120   -3.2940   -0.4120 c         1 MOL      0.662397
     44 O9          6.4310   -2.1890   -0.3920 o         1 MOL     -0.653713
     45 H17         8.5720   -2.6890    2.3800 hn        1 MOL      0.270468
     46 H18         8.3570   -4.4470    0.7710 h1        1 MOL      0.087838
     47 H19         9.1290   -3.4920   -0.4760 h1        1 MOL      0.087838
     48 N5          6.4360   -4.3340   -0.9400 n         1 MOL     -0.514653
     49 C16         5.0970   -4.3700   -1.6830 c3        1 MOL     -0.008116
     50 C17         3.9950   -3.8390   -0.7560 c         1 MOL      0.724828
     51 O10         3.7900   -4.4060    0.3150 o         1 MOL     -0.522198
     52 C18         4.9100   -5.8140   -2.2550 c3        1 MOL     -0.408188
     53 C19         3.5110   -6.0910   -2.9310 c         1 MOL      0.628535
     54 N6          2.7450   -7.0270   -2.3780 n         1 MOL     -0.769728
     55 O11         3.0590   -5.4530   -3.8960 o         1 MOL     -0.525114
     56 H20         6.9300   -5.2000   -0.8470 hn        1 MOL      0.305347
     57 H21         5.1760   -3.8160   -2.6200 h1        1 MOL      0.035410
     58 H22         5.1110   -6.5700   -1.5000 hc        1 MOL      0.136027
     59 H23         5.6740   -5.8860   -3.0270 hc        1 MOL      0.136027
     60 H24         3.1870   -7.6990   -1.7750 hn        1 MOL      0.379958
     61 H25         1.7990   -7.1150   -2.6950 hn        1 MOL      0.379958
     62 N7          3.0690   -3.0250   -1.2970 n         1 MOL     -0.339940
     63 C20         1.7130   -2.7980   -0.7720 c3        1 MOL     -0.187398
     64 C21         1.7260   -2.3820    0.7300 c         1 MOL      0.519300
     65 O12         2.6420   -1.7100    1.2920 o         1 MOL     -0.533078
     66 H26         3.3190   -2.6220   -2.1880 hn        1 MOL      0.257355
     67 H27         1.2800   -3.7860   -0.8850 h1        1 MOL      0.139167
     68 H28         1.2240   -2.0330   -1.3840 h1        1 MOL      0.139167
     69 N8          0.7840   -2.8900    1.5350 n         1 MOL     -0.418320
     70 C22        -0.3130   -3.8900    1.2850 c3        1 MOL     -0.059383
     71 C23        -1.7380   -3.4060    1.4290 c         1 MOL      0.665009
     72 O13        -2.6730   -4.0530    0.9850 o         1 MOL     -0.570765
     73 C24        -0.1810   -4.9680    2.2870 c3        1 MOL      0.488755
     74 C25         1.1110   -5.8720    2.0590 c3        1 MOL     -0.655769
     75 O14         0.0240   -4.4240    3.6100 oh        1 MOL     -0.625825
     76 H29         0.8700   -2.6450    2.5100 hn        1 MOL      0.336299
     77 H30        -0.2620   -4.3910    0.3140 h1        1 MOL      0.065369
     78 H31        -1.0910   -5.5670    2.2270 h1        1 MOL     -0.037395
     79 H32        -0.7610   -4.7530    4.0570 ho        1 MOL      0.390267
     80 H33         1.0650   -6.7460    2.7100 hc        1 MOL      0.162697
     81 H34         1.1480   -6.1540    1.0050 hc        1 MOL      0.162697
     82 H35         1.9920   -5.2660    2.2660 hc        1 MOL      0.162697
     83 N9         -1.9930   -2.2410    2.0560 n         1 MOL     -0.599399
     84 C26        -3.3720   -1.6450    2.2140 c3        1 MOL      0.316707
     85 C27        -3.5860   -0.6650    1.0230 c         1 MOL      0.501612
     86 O15        -2.7620    0.1700    0.7920 o         1 MOL     -0.588438
     87 C28        -3.5380   -0.9020    3.6010 c3        1 MOL      0.102896
     88 C29        -3.2190   -1.7820    4.7900 c3        1 MOL     -0.321384
     89 C30        -4.9210   -0.3090    3.6860 c3        1 MOL     -0.149733
     90 C31        -4.1180   -3.0360    5.0360 c3        1 MOL      0.070443
     91 H36        -1.3150   -1.6980    2.5780 hn        1 MOL      0.248389
     92 H37        -4.1510   -2.3990    2.1180 h1        1 MOL      0.056297
     93 H38        -2.8510   -0.0560    3.5940 hc        1 MOL     -0.001130
     94 H39        -3.2830   -1.1700    5.6870 hc        1 MOL      0.085706
     95 H40        -2.2020   -2.1550    4.6360 hc        1 MOL      0.085706
     96 H41        -5.6650   -1.0730    3.4550 hc        1 MOL      0.065274
     97 H42        -5.0900   -0.0110    4.7160 hc        1 MOL      0.065274
     98 H43        -5.0530    0.4510    2.9170 hc        1 MOL      0.065274
     99 H44        -3.8550   -3.6490    4.1800 hc        1 MOL     -0.024253
    100 H45        -3.8790   -3.5680    5.9590 hc        1 MOL     -0.024253
    101 H46        -5.1790   -2.8040    5.0670 hc        1 MOL     -0.024253
    102 N10        -4.7050   -0.6140    0.2460 n         1 MOL     -0.359821
    103 C32        -5.9690   -1.3310    0.3440 c3        1 MOL      0.063794
    104 C33        -7.1600   -0.4860   -0.0810 c         1 MOL      0.384672
    105 O16        -7.0090    0.5460   -0.7280 o         1 MOL     -0.452327
    106 C34        -5.8160   -2.6130   -0.5270 c3        1 MOL      0.013998
    107 C35        -5.1540   -2.5310   -1.9170 c         1 MOL      0.659687
    108 O17        -4.4870   -3.4550   -2.3440 o         1 MOL     -0.709599
    109 O18        -5.3500   -1.4440   -2.5330 o         1 MOL     -0.709599
    110 H47        -4.6080    0.0550   -0.4990 hn        1 MOL      0.286255
    111 H48        -6.0830   -1.7830    1.3350 h1        1 MOL      0.011978
    112 H49        -6.7990   -3.0620   -0.6690 hc        1 MOL     -0.062386
    113 H50        -5.2170   -3.2480    0.1340 hc        1 MOL     -0.062386
    114 N11        -8.3170   -1.1070    0.0460 n         1 MOL     -0.488551
    115 C36        -9.6410   -0.4880   -0.3630 c3        1 MOL      0.446249
    116 C37       -10.4630    0.2460    0.6710 c         1 MOL      0.205221
    117 O19       -10.7010   -0.2190    1.7870 o         1 MOL     -0.468644
    118 C38       -10.4590   -1.5950   -1.0620 c3        1 MOL     -0.318314
    119 C39       -11.3270   -1.0430   -2.1990 ca        1 MOL      0.224978
    120 C40       -12.6610   -0.6650   -1.9390 ca        1 MOL     -0.315944
    121 C41       -10.7930   -1.0540   -3.5000 ca        1 MOL     -0.315944
    122 C42       -13.4210   -0.0690   -3.0100 ca        1 MOL      0.003009
    123 C43       -11.5960   -0.5740   -4.5630 ca        1 MOL      0.003009
    124 C44       -12.9560   -0.1070   -4.3070 ca        1 MOL     -0.252764
    125 H51        -8.2760   -2.0080    0.4830 hn        1 MOL      0.279480
    126 H52        -9.4000    0.1900   -1.1860 h1        1 MOL      0.055680
    127 H53       -10.9300   -2.2150   -0.2930 hc        1 MOL      0.096209
    128 H54        -9.7550   -2.3000   -1.5280 hc        1 MOL      0.096209
    129 H55       -13.1020   -0.5920   -0.9600 ha        1 MOL      0.181485
    130 H56        -9.8470   -1.5040   -3.7500 ha        1 MOL      0.181485
    131 H57       -14.3600    0.3730   -2.7170 ha        1 MOL      0.094310
    132 H58       -11.1980   -0.6650   -5.5610 ha        1 MOL      0.094310
    133 H59       -13.5630    0.2380   -5.1320 ha        1 MOL      0.119268
    134 N12       -11.1830    1.3570    0.2710 n         1 MOL     -0.045554
    135 C45       -11.0280    2.3000   -0.9050 c3        1 MOL      0.047433
    136 C46        -9.5850    2.9560   -0.9520 c         1 MOL      0.369685
    137 O20        -9.0920    3.0670   -2.0980 o         1 MOL     -0.531762
    138 C47       -12.1880    3.2970   -0.8170 c3        1 MOL     -0.065005
    139 C48       -13.2490    2.5000   -0.0600 c3        1 MOL      0.086764
    140 C49       -12.5110    1.6070    0.8750 c3        1 MOL     -0.132788
    141 H60       -11.1860    1.7380   -1.8210 h1        1 MOL      0.067052
    142 H61       -11.8900    4.1260   -0.1770 hc        1 MOL      0.035208
    143 H62       -12.5500    3.6390   -1.7970 hc        1 MOL      0.035208
    144 H63       -13.9240    3.1300    0.5130 hc        1 MOL     -0.027834
    145 H64       -13.8590    1.9520   -0.7720 hc        1 MOL     -0.027834
    146 H65       -12.3720    2.1060    1.8320 h1        1 MOL      0.069541
    147 H66       -12.9550    0.6430    1.1300 h1        1 MOL      0.069541
    148 N13        -8.9310    3.2850    0.1820 n         1 MOL     -0.258443
    149 C50        -7.5780    3.7410    0.2310 c3        1 MOL      0.138659
    150 C51        -7.5080    5.1760   -0.3240 c         1 MOL      0.333580
    151 O21        -8.0630    6.1380    0.3460 o         1 MOL     -0.592158
    152 C52        -7.1990    3.8340    1.7390 c3        1 MOL      0.180345
    153 C53        -7.2070    2.5010    2.4360 c3        1 MOL     -0.086064
    154 C54        -7.0340    2.5850    3.9440 c         1 MOL      0.734009
    155 O22        -6.2310    3.3850    4.4250 o         1 MOL     -0.731101
    156 O23        -7.7520    1.9010    4.6860 o         1 MOL     -0.731101
    157 H67        -9.4680    3.3950    1.0290 hn        1 MOL      0.243724
    158 H68        -6.9690    3.0860   -0.3870 h1        1 MOL      0.061477
    159 H69        -7.9320    4.4840    2.2230 hc        1 MOL     -0.032559
    160 H70        -6.2670    4.3920    1.8380 hc        1 MOL     -0.032559
    161 H71        -6.3680    1.9570    2.0020 hc        1 MOL     -0.069198
    162 H72        -8.1050    1.9480    2.1590 hc        1 MOL     -0.069198
    163 N14        -6.9570    5.4900   -1.4930 n         1 MOL     -0.242122
    164 C55        -6.2100    4.6010   -2.3780 c3        1 MOL     -0.200020
    165 H73        -5.8060    3.7690   -1.8010 h1        1 MOL      0.096057
    166 H74        -6.8750    4.2170   -3.1520 h1        1 MOL      0.096057
    167 H75        -5.3920    5.1530   -2.8420 h1        1 MOL      0.096057
    168 H76        -6.9780    6.4590   -1.7640 hn        1 MOL      0.248134
    169 Ca1         6.8510    0.2520   -1.3860 Ca        1 MOL      1.648506
    170 O24         5.6390   -0.1740   -3.5870 oh        1 MOL     -0.792413
    171 H77         4.8290   -0.3240   -4.0710 ho        1 MOL      0.400418
    172 H78         6.2180    0.2670   -4.2100 ho        1 MOL      0.400418
    173 O25         5.3760    2.5590   -2.2110 oh        1 MOL     -0.792413
    174 H79         5.8740    3.2210   -2.6970 ho        1 MOL      0.400418
    175 H80         4.6560    3.0540   -1.8250 ho        1 MOL      0.400418
    176 O26         7.9880   -1.8500   -2.7970 oh        1 MOL     -0.792413
    177 H81         8.4550   -2.6840   -2.7440 ho        1 MOL      0.400418
    178 H82         7.5950   -1.8560   -3.6740 ho        1 MOL      0.400418
    179 O27         4.1140    0.1630   -1.0740 oh        1 MOL     -0.792413
    180 H83         3.2550    0.4840   -1.3820 ho        1 MOL      0.400418
    181 H84         3.8910   -0.4220   -0.3480 ho        1 MOL      0.400418
@<TRIPOS>BOND
     1    1    2 1   
     2    1    4 1   
     3    1    5 1   
     4    1    6 1   
     5    2    3 2   
     6    2    7 1   
     7    7    8 1   
     8    7   15 1   
     9    8    9 1   
    10    8   11 1   
    11    8   16 1   
    12    9   10 2   
    13    9   19 1   
    14   11   12 1   
    15   11   17 1   
    16   11   18 1   
    17   12   13 1   
    18   12   14 1   
    19   19   20 1   
    20   19   24 1   
    21   20   21 1   
    22   20   23 1   
    23   20   25 1   
    24   21   22 2   
    25   21   29 1   
    26   23   26 1   
    27   23   27 1   
    28   23   28 1   
    29   29   30 1   
    30   29   37 1   
    31   30   31 1   
    32   30   33 1   
    33   30   38 1   
    34   31   32 2   
    35   31   41 1   
    36   33   34 1   
    37   33   39 1   
    38   33   40 1   
    39   34   35 1   
    40   34   36 1   
    41   41   42 1   
    42   41   45 1   
    43   42   43 1   
    44   42   46 1   
    45   42   47 1   
    46   43   44 2   
    47   43   48 1   
    48   48   49 1   
    49   48   56 1   
    50   49   50 1   
    51   49   52 1   
    52   49   57 1   
    53   50   51 2   
    54   50   62 1   
    55   52   53 1   
    56   52   58 1   
    57   52   59 1   
    58   53   54 1   
    59   53   55 2   
    60   54   60 1   
    61   54   61 1   
    62   62   63 1   
    63   62   66 1   
    64   63   64 1   
    65   63   67 1   
    66   63   68 1   
    67   64   65 2   
    68   64   69 1   
    69   69   70 1   
    70   69   76 1   
    71   70   71 1   
    72   70   73 1   
    73   70   77 1   
    74   71   72 2   
    75   71   83 1   
    76   73   74 1   
    77   73   75 1   
    78   73   78 1   
    79   74   80 1   
    80   74   81 1   
    81   74   82 1   
    82   75   79 1   
    83   83   84 1   
    84   83   91 1   
    85   84   85 1   
    86   84   87 1   
    87   84   92 1   
    88   85   86 2   
    89   85  102 1   
    90   87   88 1   
    91   87   89 1   
    92   87   93 1   
    93   88   90 1   
    94   88   94 1   
    95   88   95 1   
    96   89   96 1   
    97   89   97 1   
    98   89   98 1   
    99   90   99 1   
   100   90  100 1   
   101   90  101 1   
   102  102  103 1   
   103  102  110 1   
   104  103  104 1   
   105  103  106 1   
   106  103  111 1   
   107  104  105 2   
   108  104  114 1   
   109  106  107 1   
   110  106  112 1   
   111  106  113 1   
   112  107  108 1   
   113  107  109 1   
   114  114  115 1   
   115  114  125 1   
   116  115  116 1   
   117  115  118 1   
   118  115  126 1   
   119  116  117 2   
   120  116  134 1   
   121  118  119 1   
   122  118  127 1   
   123  118  128 1   
   124  119  120 ar  
   125  119  121 ar  
   126  120  122 ar  
   127  120  129 1   
   128  121  123 ar  
   129  121  130 1   
   130  122  124 ar  
   131  122  131 1   
   132  123  124 ar  
   133  123  132 1   
   134  124  133 1   
   135  134  135 1   
   136  134  140 1   
   137  135  136 1   
   138  135  138 1   
   139  135  141 1   
   140  136  137 2   
   141  136  148 1   
   142  138  139 1   
   143  138  142 1   
   144  138  143 1   
   145  139  140 1   
   146  139  144 1   
   147  139  145 1   
   148  140  146 1   
   149  140  147 1   
   150  148  149 1   
   151  148  157 1   
   152  149  150 1   
   153  149  152 1   
   154  149  158 1   
   155  150  151 2   
   156  150  163 1   
   157  152  153 1   
   158  152  159 1   
   159  152  160 1   
   160  153  154 1   
   161  153  161 1   
   162  153  162 1   
   163  154  155 1   
   164  154  156 1   
   165  163  164 1   
   166  163  168 1   
   167  164  165 1   
   168  164  166 1   
   169  164  167 1   
   170  170  171 1   
   171  170  172 1   
   172  173  174 1   
   173  173  175 1   
   174  176  177 1   
   175  176  178 1   
   176  179  180 1   
   177  179  181 1   
@<TRIPOS>SUBSTRUCTURE
     1 MOL         1 TEMP              0 ****  ****    0 ROOT
