@<TRIPOS>MOLECULE
MOL
  192   187     1     0     0
SMALL
resp


@<TRIPOS>ATOM
      1 C1         -5.5040   -2.9690    5.6580 c3        1 MOL     -0.226242
      2 C2         -5.0240   -2.4290    4.2930 c         1 MOL      0.625359
      3 O1         -4.7110   -3.1940    3.3650 o         1 MOL     -0.575508
      4 H1         -5.2570   -2.2510    6.4400 hc        1 MOL      0.057480
      5 H2         -6.5830   -3.1190    5.6310 hc        1 MOL      0.057480
      6 H3         -5.0110   -3.9180    5.8670 hc        1 MOL      0.057480
      7 N1         -5.0230   -1.0840    4.1580 n         1 MOL     -0.350626
      8 C3         -4.7840   -0.4020    2.8800 c3        1 MOL      0.110031
      9 C4         -3.3550   -0.6120    2.2960 c         1 MOL      0.079087
     10 O2         -3.0930   -0.2260    1.1480 o         1 MOL     -0.274572
     11 C5         -5.2110    1.0840    2.8660 c3        1 MOL      0.008380
     12 C6         -6.4960    1.3680    3.6570 c         1 MOL      0.660393
     13 O3         -6.5920    1.1300    4.8680 o         1 MOL     -0.692152
     14 O4         -7.4550    1.8450    2.9750 o         1 MOL     -0.692152
     15 H4         -5.2010   -0.4920    4.9570 hn        1 MOL      0.215251
     16 H5         -5.4520   -0.8530    2.1440 h1        1 MOL      0.093574
     17 H6         -5.3630    1.4560    1.8540 hc        1 MOL     -0.058769
     18 H7         -4.4690    1.7810    3.2540 hc        1 MOL     -0.058769
     19 N2         -2.3520   -1.1400    3.0290 n         1 MOL     -0.161124
     20 C7         -0.8630   -1.1530    2.6990 c3        1 MOL     -0.012345
     21 C8         -0.4130   -2.3890    1.9090 c         1 MOL      0.522848
     22 O5         -0.9020   -3.4730    2.2120 o         1 MOL     -0.505762
     23 C9         -0.1160   -1.0300    4.0630 c3        1 MOL     -0.088183
     24 C10        -0.1490    0.3920    4.6400 c3        1 MOL      0.079898
     25 C11         1.0500    0.7400    5.5370 c3        1 MOL     -0.018607
     26 C12         0.9530    2.0670    6.2970 c3        1 MOL     -0.048543
     27 N3          0.4950    3.2080    5.4640 n4        1 MOL     -0.423431
     28 H8         -2.5430   -1.4870    3.9510 hn        1 MOL      0.180251
     29 H9         -0.6110   -0.2580    2.1470 h1        1 MOL      0.153920
     30 H10         0.8970   -1.3250    3.8040 hc        1 MOL      0.062406
     31 H11        -0.3970   -1.7570    4.8320 hc        1 MOL      0.062406
     32 H12        -1.0660    0.4810    5.2200 hc        1 MOL     -0.035019
     33 H13        -0.2370    1.0820    3.8070 hc        1 MOL     -0.035019
     34 H14         1.8450    0.8670    4.7960 hc        1 MOL      0.047935
     35 H15         1.3220   -0.0800    6.2060 hc        1 MOL      0.047935
     36 H16         1.8990    2.2670    6.8080 hx        1 MOL      0.116018
     37 H17         0.2900    1.8610    7.1400 hx        1 MOL      0.116018
     38 H18         0.1790    4.0130    5.9910 hn        1 MOL      0.350418
     39 H19         1.2410    3.4430    4.8340 hn        1 MOL      0.350418
     40 H20        -0.2500    2.9390    4.8540 hn        1 MOL      0.350418
     41 N4          0.4840   -2.3840    0.8660 n         1 MOL     -0.399742
     42 C13         1.0760   -1.1720    0.1880 c3        1 MOL     -0.061851
     43 C14         1.6150   -0.0240    1.0920 c         1 MOL      0.267911
     44 O6          1.0010    1.0260    1.1930 o         1 MOL     -0.524962
     45 C15         0.1970   -0.7060   -0.9580 c3        1 MOL     -0.058396
     46 C16         0.0710   -1.8040   -2.0430 c         1 MOL      0.670823
     47 O7         -0.9360   -1.7570   -2.7960 o         1 MOL     -0.742465
     48 O8          0.8820   -2.7090   -2.2120 o         1 MOL     -0.742465
     49 H21         0.5040   -3.2350    0.3210 hn        1 MOL      0.233067
     50 H22         1.9610   -1.5520   -0.3170 h1        1 MOL      0.107005
     51 H23         0.6510    0.1930   -1.3970 hc        1 MOL      0.064768
     52 H24        -0.7900   -0.5210   -0.5290 hc        1 MOL      0.064768
     53 N5          2.7280   -0.2630    1.7500 n         1 MOL     -0.071322
     54 C17         3.4990   -1.5090    1.9010 c3        1 MOL     -0.387484
     55 C18         4.6770   -1.2430    2.8450 c         1 MOL      0.784025
     56 O9          4.5260   -0.4170    3.7580 o         1 MOL     -0.645554
     57 H25         3.0830    0.5250    2.2660 hn        1 MOL      0.228633
     58 H26         3.7500   -1.9330    0.9320 h1        1 MOL      0.123236
     59 H27         2.8700   -2.1550    2.5130 h1        1 MOL      0.123236
     60 N6          5.8710   -1.7810    2.6370 n         1 MOL     -0.497271
     61 C19         6.1370   -3.0100    1.9100 c3        1 MOL     -0.115970
     62 C20         6.7980   -2.6480    0.6350 c         1 MOL      0.530770
     63 O10         7.7010   -1.8350    0.6150 o         1 MOL     -0.398124
     64 C21         6.9340   -4.0120    2.7910 c3        1 MOL     -0.182084
     65 C22         8.3630   -3.5100    3.0120 c         1 MOL      0.667030
     66 O11         8.5680   -2.6360    3.8850 o         1 MOL     -0.652115
     67 O12         9.3370   -3.9770    2.3150 o         1 MOL     -0.652115
     68 H28         6.6600   -1.4340    3.1590 hn        1 MOL      0.318089
     69 H29         5.2140   -3.5340    1.6700 h1        1 MOL      0.092891
     70 H30         6.9250   -5.0030    2.3640 hc        1 MOL      0.052458
     71 H31         6.4760   -4.1210    3.7720 hc        1 MOL      0.052458
     72 N7          6.3940   -3.2960   -0.4870 n         1 MOL     -0.391566
     73 C23         7.0310   -3.1040   -1.8270 c3        1 MOL      0.026327
     74 C24         7.1100   -1.6550   -2.2380 c         1 MOL      0.491175
     75 O13         8.1870   -1.1170   -2.5360 o         1 MOL     -0.515975
     76 H32         5.5600   -3.8620   -0.4140 hn        1 MOL      0.254360
     77 H33         6.3960   -3.6360   -2.5500 h1        1 MOL      0.059947
     78 H34         8.0160   -3.5670   -1.9340 h1        1 MOL      0.059947
     79 N8          5.9770   -0.9720   -2.1830 n         1 MOL     -0.456626
     80 C25         5.8850    0.4930   -2.4400 c3        1 MOL      0.033388
     81 C26         4.8850    1.0510   -1.4580 c         1 MOL      0.519914
     82 O14         3.8700    0.4510   -1.1800 o         1 MOL     -0.507763
     83 C27         5.4590    0.8420   -3.8800 c3        1 MOL      0.295754
     84 C28         6.5280    0.3800   -4.9610 c3        1 MOL     -0.434200
     85 O15         5.2270    2.2870   -4.0350 oh        1 MOL     -0.642349
     86 H35         5.1470   -1.4430   -1.8590 hn        1 MOL      0.249907
     87 H36         6.8470    0.9380   -2.2100 h1        1 MOL      0.117262
     88 H37         4.5420    0.2840   -4.0980 h1        1 MOL      0.000417
     89 H38         5.0060    2.4620   -4.9520 ho        1 MOL      0.424958
     90 H39         6.3500    1.0430   -5.7980 hc        1 MOL      0.122475
     91 H40         7.5550    0.5130   -4.5960 hc        1 MOL      0.122475
     92 H41         6.3770   -0.6610   -5.2620 hc        1 MOL      0.122475
     93 N9          5.1680    2.1860   -0.9140 n         1 MOL     -0.449656
     94 C29         4.4300    2.9420    0.1430 c3        1 MOL     -0.008395
     95 C30         3.2900    3.6640   -0.4390 c         1 MOL      0.333013
     96 O16         2.7970    4.4780    0.2770 o         1 MOL     -0.532021
     97 C31         5.3900    3.5540    1.1190 c3        1 MOL      0.230374
     98 C32         6.0060    4.9080    0.7570 c3        1 MOL     -0.017211
     99 C33         6.5380    2.6540    1.5590 c3        1 MOL     -0.390553
    100 C34         6.4480    5.6480    2.0410 c3        1 MOL     -0.140674
    101 H42         6.0160    2.6600   -1.1910 hn        1 MOL      0.287751
    102 H43         3.9000    2.2040    0.7530 h1        1 MOL      0.107600
    103 H44         4.8280    3.7430    2.0350 hc        1 MOL     -0.004390
    104 H45         5.2450    5.5820    0.3810 hc        1 MOL      0.027012
    105 H46         6.8650    4.7590    0.1060 hc        1 MOL      0.027012
    106 H47         7.3120    2.6200    0.7840 hc        1 MOL      0.108238
    107 H48         7.0780    3.0570    2.4160 hc        1 MOL      0.108238
    108 H49         6.1690    1.6530    1.7540 hc        1 MOL      0.108238
    109 H50         5.5850    5.7180    2.7090 hc        1 MOL      0.036814
    110 H51         7.2710    5.1700    2.5620 hc        1 MOL      0.036814
    111 H52         6.7380    6.6800    1.8540 hc        1 MOL      0.036814
    112 N10         2.7350    3.3640   -1.6100 n         1 MOL     -0.065074
    113 C35         1.6780    4.0830   -2.2910 c3        1 MOL      0.025853
    114 C36         0.3290    4.0130   -1.7100 c         1 MOL      0.337078
    115 O17        -0.4640    4.8830   -1.9780 o         1 MOL     -0.516147
    116 C37         1.5710    3.6730   -3.8200 c3        1 MOL      0.107759
    117 C38         1.5130    2.1670   -4.0510 c3        1 MOL     -0.177269
    118 O18         2.7340    4.1370   -4.4610 oh        1 MOL     -0.584056
    119 H53         3.1680    2.5350   -2.0100 hn        1 MOL      0.076108
    120 H54         1.9020    5.1410   -2.3460 h1        1 MOL      0.131136
    121 H55         0.6820    4.1770   -4.1750 h1        1 MOL      0.101735
    122 H56         2.7980    3.6200   -5.2630 ho        1 MOL      0.372911
    123 H57         1.2760    1.8890   -5.0820 hc        1 MOL      0.061938
    124 H58         2.4270    1.6310   -3.7790 hc        1 MOL      0.061938
    125 H59         0.6460    1.7700   -3.5120 hc        1 MOL      0.061938
    126 N11         0.0570    2.9870   -0.8820 n         1 MOL     -0.362435
    127 C39        -1.2950    2.7290   -0.3400 c3        1 MOL      0.165238
    128 C40        -2.3190    2.3140   -1.4540 c         1 MOL      0.258676
    129 O19        -2.1370    2.5870   -2.6480 o         1 MOL     -0.464566
    130 C41        -1.8230    3.7400    0.6260 c3        1 MOL      0.418273
    131 C42        -0.6630    4.3460    1.4670 c3        1 MOL     -0.427430
    132 O20        -2.7640    3.1250    1.5230 oh        1 MOL     -0.639425
    133 H60         0.7150    2.2380   -0.7080 hn        1 MOL      0.295918
    134 H61        -1.1760    1.8280    0.2670 h1        1 MOL      0.048664
    135 H62        -2.3540    4.5350    0.1060 h1        1 MOL     -0.009203
    136 H63        -3.4030    3.8070    1.7460 ho        1 MOL      0.404133
    137 H64        -1.0810    5.1720    2.0340 hc        1 MOL      0.097131
    138 H65        -0.2900    3.5700    2.1370 hc        1 MOL      0.097131
    139 H66         0.0800    4.7810    0.7920 hc        1 MOL      0.097131
    140 N12        -3.4520    1.8040   -0.9620 n         1 MOL     -0.200171
    141 C43        -4.6610    1.8840   -1.7980 c3        1 MOL     -0.025517
    142 C44        -5.5060    0.5780   -1.8970 c         1 MOL      0.567047
    143 O21        -6.4440    0.4860   -2.7010 o         1 MOL     -0.599382
    144 C45        -5.5020    2.9650   -1.2070 c3        1 MOL     -0.224068
    145 C46        -4.9740    4.3770   -1.4620 c3        1 MOL      0.191061
    146 C47        -5.8510    5.5890   -0.9300 c3        1 MOL     -0.275671
    147 C48        -7.2720    5.7450   -1.4480 c3        1 MOL      0.100414
    148 N13        -7.5410    5.6170   -2.9080 n4        1 MOL     -0.285901
    149 H67        -3.5770    1.6610    0.0270 hn        1 MOL      0.234539
    150 H68        -4.4730    2.1300   -2.8410 h1        1 MOL      0.078822
    151 H69        -5.5820    2.8220   -0.1280 hc        1 MOL      0.090885
    152 H70        -6.5330    2.9250   -1.5660 hc        1 MOL      0.090885
    153 H71        -4.7170    4.5910   -2.4990 hc        1 MOL     -0.003491
    154 H72        -4.0280    4.3770   -0.9150 hc        1 MOL     -0.003491
    155 H73        -5.2970    6.4900   -1.1610 hc        1 MOL      0.084400
    156 H74        -5.8280    5.3190    0.1270 hc        1 MOL      0.084400
    157 H75        -7.7340    6.6690   -1.1180 hx        1 MOL      0.075852
    158 H76        -7.8300    4.9520   -0.9420 hx        1 MOL      0.075852
    159 H77        -7.0620    6.3540   -3.4000 hn        1 MOL      0.282906
    160 H78        -7.1540    4.7800   -3.3100 hn        1 MOL      0.282906
    161 H79        -8.5280    5.6990   -3.0770 hn        1 MOL      0.282906
    162 N14        -5.0640   -0.4440   -1.0770 n         1 MOL     -0.285988
    163 C49        -5.5030   -1.8510   -1.1830 c3        1 MOL      0.000437
    164 C50        -6.9850   -1.9930   -0.6720 c         1 MOL      0.427926
    165 O22        -7.2420   -1.5120    0.4150 o         1 MOL     -0.469881
    166 C51        -4.5500   -2.7000   -0.3540 c3        1 MOL      0.304691
    167 C52        -4.7150   -4.2080   -0.4340 c3        1 MOL     -0.553517
    168 C53        -4.0900   -4.8680   -1.6900 c         1 MOL      0.851501
    169 O23        -4.8820   -5.1460   -2.6040 o         1 MOL     -0.791524
    170 O24        -2.8670   -4.9860   -1.7860 o         1 MOL     -0.791524
    171 H80        -4.2860   -0.3410   -0.4480 hn        1 MOL      0.082095
    172 H81        -5.5300   -2.1970   -2.2180 h1        1 MOL      0.030626
    173 H82        -4.5540   -2.4020    0.6970 hc        1 MOL     -0.033804
    174 H83        -3.5990   -2.4550   -0.8410 hc        1 MOL     -0.033804
    175 H84        -5.7800   -4.4170   -0.5080 hc        1 MOL      0.168185
    176 H85        -4.2410   -4.7020    0.4130 hc        1 MOL      0.168185
    177 N15        -7.8030   -2.6250   -1.4980 n         1 MOL     -0.253654
    178 C54        -9.1920   -3.0610   -1.1130 c3        1 MOL     -0.295078
    179 H86        -9.7280   -3.3910   -2.0020 h1        1 MOL      0.125623
    180 H87        -9.1300   -3.8840   -0.4000 h1        1 MOL      0.125623
    181 H88        -9.7230   -2.2250   -0.6590 h1        1 MOL      0.125623
    182 H89        -7.5360   -2.8170   -2.4570 hn        1 MOL      0.272595
    183 Ca1        -0.8170   -4.3470   -3.4680 Ca        1 MOL      1.777410
    184 O25        -0.2930   -2.9230   -5.6130 oh        1 MOL     -0.948853
    185 H90         0.5760   -2.9050   -6.0090 ho        1 MOL      0.459899
    186 H91        -0.7710   -2.2270   -6.0620 ho        1 MOL      0.459899
    187 O26        -1.9930   -7.2600   -2.7960 oh        1 MOL     -0.948853
    188 H92        -2.3070   -6.5900   -2.1850 ho        1 MOL      0.459899
    189 H93        -2.7920   -7.5790   -3.2190 ho        1 MOL      0.459899
    190 O27        -3.0540   -4.6280   -4.5670 oh        1 MOL     -0.948853
    191 H94        -3.4240   -4.1240   -5.2940 ho        1 MOL      0.459899
    192 H95        -3.8150   -4.9730   -4.1060 ho        1 MOL      0.459899
@<TRIPOS>BOND
     1    1    2 1   
     2    1    4 1   
     3    1    5 1   
     4    1    6 1   
     5    2    3 2   
     6    2    7 1   
     7    7    8 1   
     8    7   15 1   
     9    8    9 1   
    10    8   11 1   
    11    8   16 1   
    12    9   10 2   
    13    9   19 1   
    14   11   12 1   
    15   11   17 1   
    16   11   18 1   
    17   12   13 1   
    18   12   14 1   
    19   19   20 1   
    20   19   28 1   
    21   20   21 1   
    22   20   23 1   
    23   20   29 1   
    24   21   22 2   
    25   21   41 1   
    26   23   24 1   
    27   23   30 1   
    28   23   31 1   
    29   24   25 1   
    30   24   32 1   
    31   24   33 1   
    32   25   26 1   
    33   25   34 1   
    34   25   35 1   
    35   26   27 1   
    36   26   36 1   
    37   26   37 1   
    38   27   38 1   
    39   27   39 1   
    40   27   40 1   
    41   41   42 1   
    42   41   49 1   
    43   42   43 1   
    44   42   45 1   
    45   42   50 1   
    46   43   44 2   
    47   43   53 1   
    48   45   46 1   
    49   45   51 1   
    50   45   52 1   
    51   46   47 1   
    52   46   48 1   
    53   53   54 1   
    54   53   57 1   
    55   54   55 1   
    56   54   58 1   
    57   54   59 1   
    58   55   56 2   
    59   55   60 1   
    60   60   61 1   
    61   60   68 1   
    62   61   62 1   
    63   61   64 1   
    64   61   69 1   
    65   62   63 2   
    66   62   72 1   
    67   64   65 1   
    68   64   70 1   
    69   64   71 1   
    70   65   66 1   
    71   65   67 1   
    72   72   73 1   
    73   72   76 1   
    74   73   74 1   
    75   73   77 1   
    76   73   78 1   
    77   74   75 2   
    78   74   79 1   
    79   79   80 1   
    80   79   86 1   
    81   80   81 1   
    82   80   83 1   
    83   80   87 1   
    84   81   82 2   
    85   81   93 1   
    86   83   84 1   
    87   83   85 1   
    88   83   88 1   
    89   84   90 1   
    90   84   91 1   
    91   84   92 1   
    92   85   89 1   
    93   93   94 1   
    94   93  101 1   
    95   94   95 1   
    96   94   97 1   
    97   94  102 1   
    98   95   96 2   
    99   95  112 1   
   100   97   98 1   
   101   97   99 1   
   102   97  103 1   
   103   98  100 1   
   104   98  104 1   
   105   98  105 1   
   106   99  106 1   
   107   99  107 1   
   108   99  108 1   
   109  100  109 1   
   110  100  110 1   
   111  100  111 1   
   112  112  113 1   
   113  112  119 1   
   114  113  114 1   
   115  113  116 1   
   116  113  120 1   
   117  114  115 2   
   118  114  126 1   
   119  116  117 1   
   120  116  118 1   
   121  116  121 1   
   122  117  123 1   
   123  117  124 1   
   124  117  125 1   
   125  118  122 1   
   126  126  127 1   
   127  126  133 1   
   128  127  128 1   
   129  127  130 1   
   130  127  134 1   
   131  128  129 2   
   132  128  140 1   
   133  130  131 1   
   134  130  132 1   
   135  130  135 1   
   136  131  137 1   
   137  131  138 1   
   138  131  139 1   
   139  132  136 1   
   140  140  141 1   
   141  140  149 1   
   142  141  142 1   
   143  141  144 1   
   144  141  150 1   
   145  142  143 2   
   146  142  162 1   
   147  144  145 1   
   148  144  151 1   
   149  144  152 1   
   150  145  146 1   
   151  145  153 1   
   152  145  154 1   
   153  146  147 1   
   154  146  155 1   
   155  146  156 1   
   156  147  148 1   
   157  147  157 1   
   158  147  158 1   
   159  148  159 1   
   160  148  160 1   
   161  148  161 1   
   162  162  163 1   
   163  162  171 1   
   164  163  164 1   
   165  163  166 1   
   166  163  172 1   
   167  164  165 2   
   168  164  177 1   
   169  166  167 1   
   170  166  173 1   
   171  166  174 1   
   172  167  168 1   
   173  167  175 1   
   174  167  176 1   
   175  168  169 1   
   176  168  170 1   
   177  177  178 1   
   178  177  182 1   
   179  178  179 1   
   180  178  180 1   
   181  178  181 1   
   182  184  185 1   
   183  184  186 1   
   184  187  188 1   
   185  187  189 1   
   186  190  191 1   
   187  190  192 1   
@<TRIPOS>SUBSTRUCTURE
     1 MOL         1 TEMP              0 ****  ****    0 ROOT
