@<TRIPOS>MOLECULE
MOL
  194   186     1     0     0
SMALL
resp


@<TRIPOS>ATOM
      1 C1         -2.3170   -0.1610   -3.9120 c3        1 MOL     -0.477022
      2 C2         -3.2590   -0.1190   -2.6720 c         1 MOL      0.579032
      3 O1         -2.8510    0.3270   -1.6110 o         1 MOL     -0.466146
      4 H1         -1.2900   -0.3160   -3.5830 hc        1 MOL      0.131193
      5 H2         -2.6160   -0.9790   -4.5690 hc        1 MOL      0.131193
      6 H3         -2.3860    0.7830   -4.4520 hc        1 MOL      0.131193
      7 N1         -4.4400   -0.7340   -2.7700 n         1 MOL     -0.309376
      8 C3         -5.3490   -1.0060   -1.6650 c3        1 MOL     -0.196547
      9 C4         -5.2960   -2.4650   -1.1830 c         1 MOL      0.584804
     10 O2         -6.2100   -2.9220   -0.4570 o         1 MOL     -0.498021
     11 C5         -6.7930   -0.5350   -2.0010 c3        1 MOL     -0.156437
     12 C6         -7.4640   -1.1770   -3.2260 c         1 MOL      0.635123
     13 O3         -6.9060   -2.1260   -3.8100 o         1 MOL     -0.671673
     14 O4         -8.6150   -0.7930   -3.5410 o         1 MOL     -0.671673
     15 H4         -4.7910   -1.0130   -3.6730 hn        1 MOL      0.223957
     16 H5         -4.9670   -0.4300   -0.8240 h1        1 MOL      0.094498
     17 H6         -6.8440    0.5480   -2.0370 hc        1 MOL      0.083365
     18 H7         -7.4210   -0.8070   -1.1470 hc        1 MOL      0.083365
     19 N2         -4.1670   -3.1230   -1.5030 n         1 MOL     -0.286974
     20 C7         -3.8100   -4.4830   -1.0670 c3        1 MOL      0.063522
     21 C8         -3.6620   -4.5350    0.4630 c         1 MOL      0.545505
     22 O5         -3.7410   -5.5660    1.0780 o         1 MOL     -0.520729
     23 C9         -4.7640   -5.6030   -1.6340 c3        1 MOL     -0.039722
     24 C10        -4.8470   -5.4400   -3.1360 c3        1 MOL      0.280839
     25 C11        -5.6320   -6.5870   -3.7680 c3        1 MOL     -0.108515
     26 C12        -7.1720   -6.3570   -3.7080 c3        1 MOL     -0.018073
     27 N3         -7.5630   -5.1570   -4.4770 n4        1 MOL     -0.231475
     28 H8         -3.4850   -2.6340   -2.0570 hn        1 MOL      0.203264
     29 H9         -2.8190   -4.6880   -1.4790 h1        1 MOL      0.064592
     30 H10        -5.7630   -5.4100   -1.2510 hc        1 MOL      0.013951
     31 H11        -4.4300   -6.5880   -1.2930 hc        1 MOL      0.013951
     32 H12        -3.8840   -5.6060   -3.6110 hc        1 MOL     -0.099288
     33 H13        -5.2330   -4.4570   -3.4070 hc        1 MOL     -0.099288
     34 H14        -5.4160   -7.6000   -3.4380 hc        1 MOL      0.055005
     35 H15        -5.3950   -6.6520   -4.8310 hc        1 MOL      0.055005
     36 H16        -7.7040   -6.3720   -2.7470 hx        1 MOL      0.089171
     37 H17        -7.6400   -7.2040   -4.1970 hx        1 MOL      0.089171
     38 H18        -8.5230   -4.8910   -4.3270 hn        1 MOL      0.282274
     39 H19        -6.9580   -4.3600   -4.3280 hn        1 MOL      0.282274
     40 H20        -7.3770   -5.3310   -5.4550 hn        1 MOL      0.282274
     41 N4         -3.3950   -3.3860    1.0910 n         1 MOL     -0.390641
     42 C13        -3.7840   -3.1470    2.5250 c3        1 MOL      0.217984
     43 C14        -4.4890   -1.7490    2.7280 c         1 MOL      0.334656
     44 O6         -4.3580   -0.8660    1.9060 o         1 MOL     -0.372741
     45 C15        -2.6050   -3.2490    3.4530 c3        1 MOL     -0.511391
     46 C16        -1.5310   -2.2260    3.2560 c         1 MOL      0.951166
     47 O7         -1.3490   -1.2000    4.0440 o         1 MOL     -0.787188
     48 O8         -0.7410   -2.3770    2.2810 o         1 MOL     -0.787188
     49 H21        -3.2020   -2.5860    0.5210 hn        1 MOL      0.068758
     50 H22        -4.5160   -3.9150    2.7830 h1        1 MOL      0.072345
     51 H23        -2.1540   -4.2350    3.4190 hc        1 MOL      0.131421
     52 H24        -3.0810   -3.0220    4.4080 hc        1 MOL      0.131421
     53 N5         -5.2050   -1.5840    3.8080 n         1 MOL     -0.316673
     54 C17        -6.1150   -0.4060    3.9600 c3        1 MOL     -0.396628
     55 C18        -7.2240   -0.4140    2.8890 c         1 MOL      0.643293
     56 O9         -8.0420   -1.3520    2.7400 o         1 MOL     -0.532300
     57 H25        -5.2630   -2.3660    4.4440 hn        1 MOL      0.323776
     58 H26        -5.4710    0.4660    3.9180 h1        1 MOL      0.176890
     59 H27        -6.5990   -0.4860    4.9400 h1        1 MOL      0.176890
     60 N6         -7.4710    0.6700    2.1370 n         1 MOL     -0.614942
     61 C19        -6.6150    1.8430    1.9910 c3        1 MOL      0.577025
     62 C20        -6.7250    2.3210    0.5010 c         1 MOL      0.391151
     63 O10        -7.8450    2.3930    0.0180 o         1 MOL     -0.532973
     64 C21        -6.8400    2.8960    3.1490 c3        1 MOL     -0.516413
     65 C22        -7.1340    4.3200    2.7730 c         1 MOL      0.825967
     66 N7         -8.2470    4.8360    3.2020 n         1 MOL     -0.859070
     67 O11        -6.3460    4.8820    2.0850 o         1 MOL     -0.613386
     68 H28        -8.2110    0.6060    1.4540 hn        1 MOL      0.322597
     69 H29        -5.5930    1.4610    2.0190 h1        1 MOL     -0.078066
     70 H30        -5.9440    2.9420    3.7840 hc        1 MOL      0.105966
     71 H31        -7.7050    2.4880    3.6600 hc        1 MOL      0.105966
     72 H32        -8.9680    4.2420    3.5940 hn        1 MOL      0.390649
     73 H33        -8.4060    5.8260    3.0270 hn        1 MOL      0.390649
     74 N8         -5.6640    2.7380   -0.1440 n         1 MOL     -0.325895
     75 C23        -4.2620    2.7780    0.4530 c3        1 MOL     -0.038290
     76 C24        -3.1980    3.2710   -0.5210 c         1 MOL      0.536763
     77 O12        -3.3750    3.5640   -1.7010 o         1 MOL     -0.519605
     78 H34        -5.7700    2.9240   -1.1270 hn        1 MOL      0.292749
     79 H35        -4.0900    1.7360    0.7040 h1        1 MOL      0.067117
     80 H36        -4.2380    3.3460    1.3870 h1        1 MOL      0.067117
     81 N9         -1.9330    3.2930   -0.0320 n         1 MOL     -0.528711
     82 C25        -0.7550    3.7050   -0.7820 c3        1 MOL      0.172181
     83 C26         0.2620    2.5010   -0.9410 c         1 MOL      0.656178
     84 O13         0.1880    1.6090   -0.1550 o         1 MOL     -0.670779
     85 C27        -0.1140    4.9000   -0.0480 c3        1 MOL      0.122338
     86 C28         0.6150    5.8900   -0.9920 ca        1 MOL      0.058635
     87 C29         1.9280    6.3210   -0.7050 ca        1 MOL     -0.210434
     88 C30        -0.1750    6.5550   -1.9840 ca        1 MOL     -0.210434
     89 C31         2.4920    7.3880   -1.4940 ca        1 MOL     -0.186907
     90 C32         0.3760    7.5780   -2.7110 ca        1 MOL     -0.186907
     91 C33         1.7140    7.9630   -2.5450 ca        1 MOL      0.275502
     92 O14         2.0810    9.1360   -3.1460 oh        1 MOL     -0.522791
     93 H37        -1.7270    3.0150    0.9190 hn        1 MOL      0.251437
     94 H38        -1.0190    4.0430   -1.7920 h1        1 MOL      0.048236
     95 H39         0.5230    4.6960    0.8190 hc        1 MOL     -0.034997
     96 H40        -0.9150    5.4720    0.4080 hc        1 MOL     -0.034997
     97 H41         2.5060    5.8210    0.0670 ha        1 MOL      0.152488
     98 H42        -1.2050    6.2870   -2.1800 ha        1 MOL      0.152488
     99 H43         3.4860    7.7490   -1.2720 ha        1 MOL      0.136945
    100 H44        -0.2790    8.0900   -3.4080 ha        1 MOL      0.136945
    101 H45         1.4210    9.6240   -3.6410 ho        1 MOL      0.400278
    102 N10         1.2240    2.6550   -1.8680 n         1 MOL     -0.604022
    103 C34         2.4120    1.7280   -2.0030 c3        1 MOL      0.194656
    104 C35         3.3890    2.0750   -0.8800 c         1 MOL      0.353631
    105 O15         3.2680    3.1180   -0.2710 o         1 MOL     -0.524436
    106 C36         2.8190    1.9040   -3.4880 c3        1 MOL      0.123814
    107 C37         3.7660    3.0780   -3.8030 c3        1 MOL      0.231125
    108 C38         3.6510    0.5940   -3.6840 c3        1 MOL     -0.308532
    109 C39         3.1750    4.4610   -3.8980 c3        1 MOL     -0.343866
    110 H46         1.1920    3.5100   -2.3940 hn        1 MOL      0.238393
    111 H47         2.0140    0.7380   -1.7810 h1        1 MOL      0.079916
    112 H48         1.9780    1.8520   -4.1800 hc        1 MOL      0.038657
    113 H49         4.1450    2.8220   -4.7990 hc        1 MOL     -0.027767
    114 H50         4.6640    3.0890   -3.1790 hc        1 MOL     -0.027767
    115 H51         3.0240   -0.2460   -3.3910 hc        1 MOL      0.068192
    116 H52         3.8490    0.4350   -4.7470 hc        1 MOL      0.068192
    117 H53         4.5710    0.5480   -3.0970 hc        1 MOL      0.068192
    118 H54         2.2350    4.5090   -4.4460 hc        1 MOL      0.080380
    119 H55         3.1610    4.9100   -2.8960 hc        1 MOL      0.080380
    120 H56         3.9690    5.0260   -4.3810 hc        1 MOL      0.080380
    121 N11         4.4530    1.3420   -0.5350 n         1 MOL     -0.265307
    122 C40         5.3000    1.5580    0.6640 c3        1 MOL      0.350512
    123 C41         5.5270    0.3470    1.5490 c         1 MOL      0.139760
    124 O16         5.3740   -0.7770    1.0880 o         1 MOL     -0.282827
    125 C42         6.6600    2.0570    0.2450 c3        1 MOL     -0.341139
    126 O17         7.3190    1.0640   -0.4040 oh        1 MOL     -0.264911
    127 H57         4.6580    0.5020   -1.0550 hn        1 MOL      0.173566
    128 H58         4.8460    2.3040    1.3260 h1        1 MOL     -0.009611
    129 H59         7.1470    2.3750    1.1670 h1        1 MOL      0.126314
    130 H60         6.4300    2.9140   -0.3880 h1        1 MOL      0.126314
    131 H61         8.2280    1.3780   -0.3930 ho        1 MOL      0.393479
    132 N12         5.9040    0.6220    2.8380 n         1 MOL     -0.386888
    133 C43         6.2420   -0.3700    3.8310 c3        1 MOL      0.018598
    134 C44         7.2850   -1.4250    3.3260 c         1 MOL      0.483894
    135 O18         7.0300   -2.6270    3.4140 o         1 MOL     -0.437498
    136 C45         4.9790   -0.8940    4.5830 c3        1 MOL     -0.274380
    137 H62         6.0540    1.5770    3.1350 hn        1 MOL      0.294634
    138 H63         6.7890    0.1660    4.6100 h1        1 MOL      0.062155
    139 H64         4.2910   -1.3390    3.8540 hc        1 MOL      0.095832
    140 H65         5.2760   -1.6400    5.3150 hc        1 MOL      0.095832
    141 H66         4.2840   -0.1560    5.0040 hc        1 MOL      0.095832
    142 N13         8.3300   -0.9710    2.6390 n         1 MOL     -0.368298
    143 C46         9.3670   -1.8490    2.1000 c3        1 MOL      0.047973
    144 C47         8.8740   -2.6140    0.8550 c         1 MOL      0.478534
    145 O19         9.1510   -3.8310    0.5990 o         1 MOL     -0.499571
    146 C48        10.1440   -2.6040    3.2270 c3        1 MOL     -0.189326
    147 H67         8.5070    0.0240    2.5980 hn        1 MOL      0.254953
    148 H68        10.0910   -1.1230    1.7370 h1        1 MOL      0.045570
    149 H69        11.1820   -2.3270    3.4420 hc        1 MOL      0.066538
    150 H70         9.7000   -2.4030    4.2010 hc        1 MOL      0.066538
    151 H71        10.2340   -3.6730    3.0150 hc        1 MOL      0.066538
    152 N14         8.0400   -1.9570    0.0580 n         1 MOL     -0.261300
    153 C49         7.6320   -2.5610   -1.2120 c3        1 MOL      0.022991
    154 C50         8.4840   -2.0380   -2.3720 c         1 MOL      0.310432
    155 O20         9.1120   -2.8660   -2.9820 o         1 MOL     -0.453218
    156 C51         6.1010   -2.2610   -1.3550 c3        1 MOL      0.419152
    157 C52         5.4350   -3.0210   -2.5300 c3        1 MOL     -0.446238
    158 C53         5.3280   -4.4710   -2.2250 c         1 MOL      0.762206
    159 O21         4.5490   -4.8140   -1.2810 o         1 MOL     -0.705347
    160 O22         6.0630   -5.2670   -2.7950 o         1 MOL     -0.705347
    161 H72         7.6650   -1.0630    0.3360 hn        1 MOL      0.020705
    162 H73         7.7450   -3.6430   -1.2640 h1        1 MOL      0.161279
    163 H74         6.0320   -1.2080   -1.6330 hc        1 MOL     -0.103553
    164 H75         5.5420   -2.4540   -0.4340 hc        1 MOL     -0.103553
    165 H76         6.0620   -2.8320   -3.4040 hc        1 MOL      0.065806
    166 H77         4.4250   -2.6190   -2.6230 hc        1 MOL      0.065806
    167 N15         8.5690   -0.7410   -2.5570 n         1 MOL     -0.095426
    168 C54         9.2870   -0.1480   -3.6710 c3        1 MOL     -0.224448
    169 H78        10.3420   -0.4140   -3.6060 h1        1 MOL      0.092863
    170 H79         8.8770   -0.5220   -4.6090 h1        1 MOL      0.092863
    171 H80         9.1830    0.9360   -3.6350 h1        1 MOL      0.092863
    172 H81         8.1870   -0.0690   -1.9030 hn        1 MOL      0.046070
    173 Ca1         0.2810    0.1080    2.2930 Ca        1 MOL      1.734725
    174 O23        -1.1670    2.4020    2.9990 oh        1 MOL     -0.757601
    175 H82        -2.0480    2.6930    3.2410 ho        1 MOL      0.374826
    176 H83        -0.6020    3.1190    3.2790 ho        1 MOL      0.374826
    177 O24         1.7840   -1.6680    3.7850 oh        1 MOL     -0.757601
    178 H84         2.5810   -2.1090    3.4820 ho        1 MOL      0.374826
    179 H85         1.3670   -2.3070    4.3720 ho        1 MOL      0.374826
    180 O25         2.1290    1.9900    2.2200 oh        1 MOL     -0.757601
    181 H86         2.4650    2.5630    2.9140 ho        1 MOL      0.374826
    182 H87         2.3100    2.4730    1.4080 ho        1 MOL      0.374826
    183 O26        -2.1460    0.2190    1.1170 oh        1 MOL     -0.757601
    184 H88        -2.4230    0.2990    0.2010 ho        1 MOL      0.374826
    185 H89        -2.8360   -0.3140    1.5260 ho        1 MOL      0.374826
    186 O27         2.3710   -0.7530    0.9600 oh        1 MOL     -0.757601
    187 H90         2.3930   -1.5870    0.4880 ho        1 MOL      0.374826
    188 H91         3.2740   -0.5940    1.2260 ho        1 MOL      0.374826
    189 O28        -0.6410   -1.7980   -0.1200 oh        1 MOL     -0.757601
    190 H92        -0.8300   -2.0600    0.7810 ho        1 MOL      0.374826
    191 H93        -0.2520   -2.5760   -0.5200 ho        1 MOL      0.374826
    192 O29         0.7920    0.8520    4.7220 oh        1 MOL     -0.757601
    193 H94         1.5810    0.8040    5.2500 ho        1 MOL      0.374826
    194 H95         0.2340    1.4880    5.1770 ho        1 MOL      0.374826
@<TRIPOS>BOND
     1    1    2 1   
     2    1    4 1   
     3    1    5 1   
     4    1    6 1   
     5    2    3 2   
     6    2    7 1   
     7    7    8 1   
     8    7   15 1   
     9    8    9 1   
    10    8   11 1   
    11    8   16 1   
    12    9   10 2   
    13    9   19 1   
    14   11   12 1   
    15   11   17 1   
    16   11   18 1   
    17   12   13 1   
    18   12   14 1   
    19   19   20 1   
    20   19   28 1   
    21   20   21 1   
    22   20   23 1   
    23   20   29 1   
    24   21   22 2   
    25   21   41 1   
    26   23   24 1   
    27   23   30 1   
    28   23   31 1   
    29   24   25 1   
    30   24   32 1   
    31   24   33 1   
    32   25   26 1   
    33   25   34 1   
    34   25   35 1   
    35   26   27 1   
    36   26   36 1   
    37   26   37 1   
    38   27   38 1   
    39   27   39 1   
    40   27   40 1   
    41   41   42 1   
    42   41   49 1   
    43   42   43 1   
    44   42   45 1   
    45   42   50 1   
    46   43   44 2   
    47   43   53 1   
    48   45   46 1   
    49   45   51 1   
    50   45   52 1   
    51   46   47 1   
    52   46   48 1   
    53   53   54 1   
    54   53   57 1   
    55   54   55 1   
    56   54   58 1   
    57   54   59 1   
    58   55   56 2   
    59   55   60 1   
    60   60   61 1   
    61   60   68 1   
    62   61   62 1   
    63   61   64 1   
    64   61   69 1   
    65   62   63 2   
    66   62   74 1   
    67   64   65 1   
    68   64   70 1   
    69   64   71 1   
    70   65   66 1   
    71   65   67 2   
    72   66   72 1   
    73   66   73 1   
    74   74   75 1   
    75   74   78 1   
    76   75   76 1   
    77   75   79 1   
    78   75   80 1   
    79   76   77 2   
    80   76   81 1   
    81   81   82 1   
    82   81   93 1   
    83   82   83 1   
    84   82   85 1   
    85   82   94 1   
    86   83   84 2   
    87   83  102 1   
    88   85   86 1   
    89   85   95 1   
    90   85   96 1   
    91   86   87 ar  
    92   86   88 ar  
    93   87   89 ar  
    94   87   97 1   
    95   88   90 ar  
    96   88   98 1   
    97   89   91 ar  
    98   89   99 1   
    99   90   91 ar  
   100   90  100 1   
   101   91   92 1   
   102   92  101 1   
   103  102  103 1   
   104  102  110 1   
   105  103  104 1   
   106  103  106 1   
   107  103  111 1   
   108  104  105 2   
   109  104  121 1   
   110  106  107 1   
   111  106  108 1   
   112  106  112 1   
   113  107  109 1   
   114  107  113 1   
   115  107  114 1   
   116  108  115 1   
   117  108  116 1   
   118  108  117 1   
   119  109  118 1   
   120  109  119 1   
   121  109  120 1   
   122  121  122 1   
   123  121  127 1   
   124  122  123 1   
   125  122  125 1   
   126  122  128 1   
   127  123  124 2   
   128  123  132 1   
   129  125  126 1   
   130  125  129 1   
   131  125  130 1   
   132  126  131 1   
   133  132  133 1   
   134  132  137 1   
   135  133  134 1   
   136  133  136 1   
   137  133  138 1   
   138  134  135 2   
   139  134  142 1   
   140  136  139 1   
   141  136  140 1   
   142  136  141 1   
   143  142  143 1   
   144  142  147 1   
   145  143  144 1   
   146  143  146 1   
   147  143  148 1   
   148  144  145 2   
   149  144  152 1   
   150  146  149 1   
   151  146  150 1   
   152  146  151 1   
   153  152  153 1   
   154  152  161 1   
   155  153  154 1   
   156  153  156 1   
   157  153  162 1   
   158  154  155 2   
   159  154  167 1   
   160  156  157 1   
   161  156  163 1   
   162  156  164 1   
   163  157  158 1   
   164  157  165 1   
   165  157  166 1   
   166  158  159 1   
   167  158  160 1   
   168  167  168 1   
   169  167  172 1   
   170  168  169 1   
   171  168  170 1   
   172  168  171 1   
   173  174  175 1   
   174  174  176 1   
   175  177  178 1   
   176  177  179 1   
   177  180  181 1   
   178  180  182 1   
   179  183  184 1   
   180  183  185 1   
   181  186  187 1   
   182  186  188 1   
   183  189  190 1   
   184  189  191 1   
   185  192  193 1   
   186  192  194 1   
@<TRIPOS>SUBSTRUCTURE
     1 MOL         1 TEMP              0 ****  ****    0 ROOT
