@<TRIPOS>MOLECULE
MOL
  195   189     1     0     0
SMALL
resp


@<TRIPOS>ATOM
      1 C1          5.2530    0.4440    6.3300 c3        1 MOL     -0.284847
      2 C2          5.1430    0.5230    4.8100 c         1 MOL      0.758273
      3 O1          5.0650    1.6240    4.3000 o         1 MOL     -0.583990
      4 H1          6.1100   -0.1700    6.6000 hc        1 MOL      0.069505
      5 H2          5.3820    1.4470    6.7380 hc        1 MOL      0.069505
      6 H3          4.3450   -0.0010    6.7370 hc        1 MOL      0.069505
      7 N1          5.1200   -0.6110    4.0900 n         1 MOL     -0.545544
      8 C3          5.0460   -0.5560    2.6850 c3        1 MOL      0.088648
      9 C4          3.5490   -0.4310    2.2070 c         1 MOL      0.004699
     10 O2          3.2920   -0.4310    0.9550 o         1 MOL     -0.232384
     11 C5          5.5840   -1.9060    2.1140 c3        1 MOL     -0.139585
     12 C6          4.9280   -3.1850    2.6080 c         1 MOL      0.722602
     13 O3          3.9690   -3.6720    1.9800 o         1 MOL     -0.697537
     14 O4          5.4700   -3.7610    3.5860 o         1 MOL     -0.697537
     15 H4          5.1410   -1.5360    4.4950 hn        1 MOL      0.271887
     16 H5          5.6160    0.2750    2.2800 h1        1 MOL      0.127277
     17 H6          6.6460   -2.0030    2.3540 hc        1 MOL      0.025550
     18 H7          5.4570   -1.9110    1.0290 hc        1 MOL      0.025550
     19 N2          2.6000   -0.3090    3.0880 n         1 MOL      0.051282
     20 C7          1.1730   -0.4830    2.8820 c3        1 MOL     -0.324385
     21 C8          0.3270    0.8510    2.7220 c         1 MOL      0.418441
     22 O5          0.3730    1.6170    3.6940 o         1 MOL     -0.524911
     23 C9          0.6140   -1.4470    3.9160 c3        1 MOL      0.060223
     24 C10         1.2170   -2.8750    3.8970 c3        1 MOL     -0.117831
     25 C11         0.1440   -3.9150    4.4130 c3        1 MOL     -0.041683
     26 C12         0.4250   -5.3790    3.8970 c3        1 MOL      0.222678
     27 N3         -0.4990   -6.3450    4.3470 n4        1 MOL     -0.451406
     28 H8          2.8420   -0.1590    4.0570 hn        1 MOL      0.206976
     29 H9          1.1130   -1.1030    1.9800 h1        1 MOL      0.229230
     30 H10        -0.4560   -1.4980    3.7380 hc        1 MOL      0.028473
     31 H11         0.6630   -1.1080    4.9520 hc        1 MOL      0.028473
     32 H12         2.0970   -2.7860    4.5130 hc        1 MOL      0.059163
     33 H13         1.5240   -3.0860    2.8640 hc        1 MOL      0.059163
     34 H14        -0.8000   -3.5930    3.9680 hc        1 MOL      0.021195
     35 H15         0.0580   -3.9590    5.5030 hc        1 MOL      0.021195
     36 H16         1.4270   -5.6890    4.2130 hx        1 MOL      0.031156
     37 H17         0.5170   -5.2410    2.8110 hx        1 MOL      0.031156
     38 H18        -0.2240   -7.2050    3.9010 hn        1 MOL      0.349865
     39 H19        -0.5350   -6.4590    5.3440 hn        1 MOL      0.349865
     40 H20        -1.3930   -6.0670    3.9820 hn        1 MOL      0.349865
     41 N4         -0.4680    1.2570    1.7670 n         1 MOL      0.001783
     42 C13        -0.8570    0.5430    0.5600 c3        1 MOL     -0.391802
     43 C14        -1.1780   -0.9730    0.7840 c         1 MOL      0.779017
     44 O6         -0.5720   -1.9070    0.2440 o         1 MOL     -0.634578
     45 C15         0.0520    0.7410   -0.6040 c3        1 MOL     -0.441613
     46 C16         0.2030    2.2290   -1.1140 c         1 MOL      0.775446
     47 O7          1.0230    2.6140   -1.9190 o         1 MOL     -0.718501
     48 O8         -0.5820    3.0660   -0.6100 o         1 MOL     -0.718501
     49 H21        -0.7250    2.2370    1.8210 hn        1 MOL      0.098873
     50 H22        -1.8460    0.8370    0.2250 h1        1 MOL      0.087338
     51 H23        -0.3430    0.1240   -1.4140 hc        1 MOL      0.207613
     52 H24         1.0500    0.3080   -0.4830 hc        1 MOL      0.207613
     53 N5         -2.1710   -1.3520    1.6210 n         1 MOL     -0.293923
     54 C17        -3.2360   -0.5750    2.2650 c3        1 MOL      0.203865
     55 C18        -4.2420   -1.4280    3.0520 c         1 MOL      0.355533
     56 O9         -3.9910   -2.5970    3.3560 o         1 MOL     -0.552176
     57 H25        -2.3220   -2.3580    1.6300 hn        1 MOL      0.194553
     58 H26        -3.7930    0.0180    1.5420 h1        1 MOL     -0.006281
     59 H27        -2.6850    0.0980    2.9360 h1        1 MOL     -0.006281
     60 N6         -5.3610   -0.8160    3.3830 n         1 MOL     -0.308056
     61 C19        -5.8240    0.5410    3.0440 c3        1 MOL      0.031182
     62 C20        -6.6740    0.5840    1.7930 c         1 MOL      0.542658
     63 O10        -7.2120   -0.4350    1.2880 o         1 MOL     -0.482182
     64 C21        -6.5610    1.2260    4.1860 c3        1 MOL     -0.184543
     65 C22        -7.6510    0.4530    4.9550 c         1 MOL      0.765938
     66 O11        -8.0600   -0.6140    4.5280 o         1 MOL     -0.708360
     67 O12        -8.0270    0.9640    6.0450 o         1 MOL     -0.708360
     68 H28        -6.0060   -1.4680    3.8040 hn        1 MOL      0.302466
     69 H29        -4.9510    1.1480    2.8340 h1        1 MOL      0.008505
     70 H30        -6.9670    2.1820    3.8380 hc        1 MOL      0.006756
     71 H31        -5.8210    1.3770    4.9610 hc        1 MOL      0.006756
     72 N7         -6.7940    1.7600    1.1310 n         1 MOL     -0.197963
     73 C23        -7.8230    1.8700    0.0740 c3        1 MOL     -0.430242
     74 C24        -7.5620    1.2190   -1.2540 c         1 MOL      0.629828
     75 O13        -8.4960    0.9110   -2.0230 o         1 MOL     -0.546620
     76 H32        -6.1640    2.5370    1.2430 hn        1 MOL      0.204826
     77 H33        -7.9620    2.9360   -0.1330 h1        1 MOL      0.176001
     78 H34        -8.7180    1.3880    0.4510 h1        1 MOL      0.176001
     79 N8         -6.2640    1.1240   -1.5640 n         1 MOL     -0.386548
     80 C25        -5.6290    0.3000   -2.6060 c3        1 MOL     -0.091424
     81 C26        -4.5520   -0.5600   -1.9210 c         1 MOL      0.568808
     82 O14        -3.9000   -0.1050   -0.9670 o         1 MOL     -0.522199
     83 C27        -5.1020    1.1660   -3.7590 c3        1 MOL      0.394348
     84 C28        -6.1340    1.8520   -4.6060 c3        1 MOL     -0.421339
     85 O15        -4.3240    0.3790   -4.5910 oh        1 MOL     -0.582785
     86 H35        -5.6240    1.4610   -0.8660 hn        1 MOL      0.190439
     87 H36        -6.3840   -0.3760   -3.0170 h1        1 MOL      0.119831
     88 H37        -4.4910    1.8860   -3.2160 h1        1 MOL     -0.065488
     89 H38        -3.8530    0.9380   -5.2120 ho        1 MOL      0.391710
     90 H39        -6.7280    1.0270   -4.9960 hc        1 MOL      0.116468
     91 H40        -6.7300    2.6170   -4.0990 hc        1 MOL      0.116468
     92 H41        -5.6140    2.2990   -5.4520 hc        1 MOL      0.116468
     93 N9         -4.4460   -1.8680   -2.3080 n         1 MOL     -0.344785
     94 C29        -3.4720   -2.7060   -1.6940 c3        1 MOL     -0.086496
     95 C30        -2.3030   -3.2070   -2.5760 c         1 MOL      0.413805
     96 O16        -1.8610   -4.3430   -2.4740 o         1 MOL     -0.523626
     97 C31        -4.1970   -3.9530   -1.0730 c3        1 MOL      0.175691
     98 C32        -5.0030   -4.7930   -2.0750 c3        1 MOL      0.150903
     99 C33        -5.0400   -3.4860    0.1210 c3        1 MOL     -0.331717
    100 C34        -5.2030   -6.2450   -1.5540 c3        1 MOL     -0.260535
    101 H42        -5.0370   -2.1970   -3.0650 hn        1 MOL      0.259839
    102 H43        -2.9740   -2.1840   -0.8730 h1        1 MOL      0.095999
    103 H44        -3.4180   -4.6380   -0.7230 hc        1 MOL     -0.001381
    104 H45        -4.6420   -4.7880   -3.1080 hc        1 MOL     -0.025274
    105 H46        -5.9630   -4.2910   -2.1710 hc        1 MOL     -0.025274
    106 H47        -5.4040   -4.3600    0.6680 hc        1 MOL      0.081961
    107 H48        -4.3720   -3.0090    0.8370 hc        1 MOL      0.081961
    108 H49        -5.8050   -2.7620   -0.1630 hc        1 MOL      0.081961
    109 H50        -5.6120   -6.2780   -0.5470 hc        1 MOL      0.058291
    110 H51        -5.8970   -6.7770   -2.2070 hc        1 MOL      0.058291
    111 H52        -4.2610   -6.7960   -1.4880 hc        1 MOL      0.058291
    112 N10        -1.8750   -2.2660   -3.4010 n         1 MOL     -0.070703
    113 C35        -0.6680   -2.4410   -4.2140 c3        1 MOL     -0.030136
    114 C36         0.7290   -2.6100   -3.5310 c         1 MOL      0.295905
    115 O17         1.6210   -3.1220   -4.1390 o         1 MOL     -0.528228
    116 C37        -0.6140   -1.5270   -5.4610 c3        1 MOL      0.188167
    117 C38        -0.0690   -0.1520   -4.9720 c3        1 MOL     -0.074180
    118 O18        -1.8950   -1.3300   -5.9840 oh        1 MOL     -0.600859
    119 H53        -2.5210   -1.5220   -3.6290 hn        1 MOL      0.109687
    120 H54        -0.7890   -3.4180   -4.6770 h1        1 MOL      0.076130
    121 H55         0.1560   -1.8840   -6.1450 h1        1 MOL      0.050317
    122 H56        -1.7580   -0.8020   -6.7730 ho        1 MOL      0.394152
    123 H57         0.7330   -0.2640   -4.2480 hc        1 MOL      0.016943
    124 H58         0.3080    0.4500   -5.8010 hc        1 MOL      0.016943
    125 H59        -0.8560    0.4120   -4.4680 hc        1 MOL      0.016943
    126 N11         1.0220   -2.1030   -2.2960 n         1 MOL      0.178085
    127 C39         2.3110   -2.1150   -1.6400 c3        1 MOL      0.020172
    128 C40         3.3550   -1.2390   -2.3310 c         1 MOL      0.370799
    129 O19         3.2190   -0.7460   -3.4320 o         1 MOL     -0.489844
    130 C41         2.7720   -3.5810   -1.3620 c3        1 MOL      0.264571
    131 C42         1.7490   -4.3650   -0.5940 c3        1 MOL     -0.207045
    132 O20         3.9580   -3.5590   -0.6030 oh        1 MOL     -0.608784
    133 H60         0.2700   -1.6710   -1.7790 hn        1 MOL     -0.066109
    134 H61         2.0820   -1.6530   -0.6740 h1        1 MOL     -0.129439
    135 H62         2.8200   -4.1300   -2.3000 h1        1 MOL      0.046942
    136 H63         3.7330   -3.3990    0.3080 ho        1 MOL      0.375948
    137 H64         0.8450   -4.5370   -1.1840 hc        1 MOL      0.044948
    138 H65         2.1700   -5.3360   -0.3480 hc        1 MOL      0.044948
    139 H66         1.5300   -3.8110    0.3190 hc        1 MOL      0.044948
    140 N12         4.5070   -0.9600   -1.6620 n         1 MOL     -0.327721
    141 C43         5.6040   -0.0540   -2.1190 c3        1 MOL     -0.053591
    142 C44         5.4270    1.4780   -1.8460 c         1 MOL      0.478120
    143 O21         6.1590    2.3070   -2.4400 o         1 MOL     -0.563633
    144 C45         6.8130   -0.6090   -1.4420 c3        1 MOL     -0.033015
    145 C46         7.1190   -2.1390   -1.5960 c3        1 MOL      0.061306
    146 C47         7.0960   -2.7660   -2.9750 c3        1 MOL     -0.081518
    147 C48         7.1100   -4.2740   -2.8210 c3        1 MOL      0.102439
    148 N13         7.1390   -4.8610   -4.2340 n4        1 MOL     -0.302489
    149 H67         4.5420   -1.2710   -0.7080 hn        1 MOL      0.451165
    150 H68         5.7740   -0.1680   -3.1860 h1        1 MOL      0.054250
    151 H69         6.7880   -0.3000   -0.3950 hc        1 MOL      0.029972
    152 H70         7.6960   -0.0680   -1.8060 hc        1 MOL      0.029972
    153 H71         6.3900   -2.6890   -0.9960 hc        1 MOL     -0.011423
    154 H72         8.0850   -2.2900   -1.1200 hc        1 MOL     -0.011423
    155 H73         7.9550   -2.4460   -3.5630 hc        1 MOL      0.037022
    156 H74         6.1110   -2.5020   -3.3640 hc        1 MOL      0.037022
    157 H75         6.2410   -4.5790   -2.2310 hx        1 MOL      0.054685
    158 H76         8.0600   -4.4270   -2.3120 hx        1 MOL      0.054685
    159 H77         7.3180   -5.8530   -4.2620 hn        1 MOL      0.305228
    160 H78         6.3200   -4.5200   -4.7220 hn        1 MOL      0.305228
    161 H79         7.8860   -4.3520   -4.6840 hn        1 MOL      0.305228
    162 N14         4.6330    1.8050   -0.8310 n         1 MOL      0.185611
    163 C49         4.3270    3.1510   -0.2900 c3        1 MOL     -0.803972
    164 C50         5.5010    3.9080    0.3180 c         1 MOL      0.605254
    165 O22         6.2880    3.3950    1.1330 o         1 MOL     -0.525682
    166 C51         3.3510    3.0150    0.9150 c3        1 MOL      1.263139
    167 C52         2.7360    4.1980    1.6350 c3        1 MOL     -1.035753
    168 C53         2.2940    5.3770    0.6480 c         1 MOL      1.031996
    169 O23         3.0680    6.0010   -0.1340 o         1 MOL     -0.829606
    170 O24         1.1140    5.7810    0.6580 o         1 MOL     -0.829606
    171 H80         4.3080    1.0260   -0.2800 hn        1 MOL     -0.144631
    172 H81         3.9820    3.7630   -1.1260 h1        1 MOL      0.203532
    173 H82         3.7110    2.2710    1.6370 hc        1 MOL     -0.203585
    174 H83         2.4570    2.4980    0.5480 hc        1 MOL     -0.203585
    175 H84         3.4330    4.6000    2.3730 hc        1 MOL      0.212863
    176 H85         1.8450    3.8540    2.1630 hc        1 MOL      0.212863
    177 N15         5.6050    5.2470   -0.0300 n         1 MOL     -0.468519
    178 C54         6.6890    6.0860    0.4820 c3        1 MOL     -0.075241
    179 H86         7.5380    5.4580    0.7510 h1        1 MOL      0.059299
    180 H87         6.9930    6.7970   -0.2870 h1        1 MOL      0.059299
    181 H88         6.3450    6.6280    1.3630 h1        1 MOL      0.059299
    182 H89         4.9360    5.7040   -0.6310 hn        1 MOL      0.440920
    183 Ca1        -1.2370    5.5750   -0.2880 Ca        1 MOL      1.659283
    184 O25         0.4910    5.2970   -2.2710 oh        1 MOL     -0.807390
    185 H90         0.6490    4.3660   -2.1700 ho        1 MOL      0.409832
    186 H91         1.2680    5.6290   -2.7140 ho        1 MOL      0.409832
    187 O26        -2.6390    4.6470   -2.3840 oh        1 MOL     -0.807390
    188 H92        -2.0990    4.0030   -2.8350 ho        1 MOL      0.409832
    189 H93        -3.4000    4.1460   -2.0730 ho        1 MOL      0.409832
    190 O27        -3.2750    7.1980   -1.0490 oh        1 MOL     -0.807390
    191 H94        -3.9980    7.1920   -1.6720 ho        1 MOL      0.409832
    192 H95        -3.2130    8.1100   -0.7620 ho        1 MOL      0.409832
    193 O28         0.0370    8.1530   -0.7600 oh        1 MOL     -0.807390
    194 H96        -0.3460    8.5670    0.0190 ho        1 MOL      0.409832
    195 H97         0.9700    8.3870   -0.7120 ho        1 MOL      0.409832
@<TRIPOS>BOND
     1    1    2 1   
     2    1    4 1   
     3    1    5 1   
     4    1    6 1   
     5    2    3 2   
     6    2    7 1   
     7    7    8 1   
     8    7   15 1   
     9    8    9 1   
    10    8   11 1   
    11    8   16 1   
    12    9   10 2   
    13    9   19 1   
    14   11   12 1   
    15   11   17 1   
    16   11   18 1   
    17   12   13 1   
    18   12   14 1   
    19   19   20 1   
    20   19   28 1   
    21   20   21 1   
    22   20   23 1   
    23   20   29 1   
    24   21   22 2   
    25   21   41 1   
    26   23   24 1   
    27   23   30 1   
    28   23   31 1   
    29   24   25 1   
    30   24   32 1   
    31   24   33 1   
    32   25   26 1   
    33   25   34 1   
    34   25   35 1   
    35   26   27 1   
    36   26   36 1   
    37   26   37 1   
    38   27   38 1   
    39   27   39 1   
    40   27   40 1   
    41   41   42 1   
    42   41   49 1   
    43   42   43 1   
    44   42   45 1   
    45   42   50 1   
    46   43   44 2   
    47   43   53 1   
    48   45   46 1   
    49   45   51 1   
    50   45   52 1   
    51   46   47 1   
    52   46   48 1   
    53   53   54 1   
    54   53   57 1   
    55   54   55 1   
    56   54   58 1   
    57   54   59 1   
    58   55   56 2   
    59   55   60 1   
    60   60   61 1   
    61   60   68 1   
    62   61   62 1   
    63   61   64 1   
    64   61   69 1   
    65   62   63 2   
    66   62   72 1   
    67   64   65 1   
    68   64   70 1   
    69   64   71 1   
    70   65   66 1   
    71   65   67 1   
    72   72   73 1   
    73   72   76 1   
    74   73   74 1   
    75   73   77 1   
    76   73   78 1   
    77   74   75 2   
    78   74   79 1   
    79   79   80 1   
    80   79   86 1   
    81   80   81 1   
    82   80   83 1   
    83   80   87 1   
    84   81   82 2   
    85   81   93 1   
    86   83   84 1   
    87   83   85 1   
    88   83   88 1   
    89   84   90 1   
    90   84   91 1   
    91   84   92 1   
    92   85   89 1   
    93   93   94 1   
    94   93  101 1   
    95   94   95 1   
    96   94   97 1   
    97   94  102 1   
    98   95   96 2   
    99   95  112 1   
   100   97   98 1   
   101   97   99 1   
   102   97  103 1   
   103   98  100 1   
   104   98  104 1   
   105   98  105 1   
   106   99  106 1   
   107   99  107 1   
   108   99  108 1   
   109  100  109 1   
   110  100  110 1   
   111  100  111 1   
   112  112  113 1   
   113  112  119 1   
   114  113  114 1   
   115  113  116 1   
   116  113  120 1   
   117  114  115 2   
   118  114  126 1   
   119  116  117 1   
   120  116  118 1   
   121  116  121 1   
   122  117  123 1   
   123  117  124 1   
   124  117  125 1   
   125  118  122 1   
   126  126  127 1   
   127  126  133 1   
   128  127  128 1   
   129  127  130 1   
   130  127  134 1   
   131  128  129 2   
   132  128  140 1   
   133  130  131 1   
   134  130  132 1   
   135  130  135 1   
   136  131  137 1   
   137  131  138 1   
   138  131  139 1   
   139  132  136 1   
   140  140  141 1   
   141  140  149 1   
   142  141  142 1   
   143  141  144 1   
   144  141  150 1   
   145  142  143 2   
   146  142  162 1   
   147  144  145 1   
   148  144  151 1   
   149  144  152 1   
   150  145  146 1   
   151  145  153 1   
   152  145  154 1   
   153  146  147 1   
   154  146  155 1   
   155  146  156 1   
   156  147  148 1   
   157  147  157 1   
   158  147  158 1   
   159  148  159 1   
   160  148  160 1   
   161  148  161 1   
   162  162  163 1   
   163  162  171 1   
   164  163  164 1   
   165  163  166 1   
   166  163  172 1   
   167  164  165 2   
   168  164  177 1   
   169  166  167 1   
   170  166  173 1   
   171  166  174 1   
   172  167  168 1   
   173  167  175 1   
   174  167  176 1   
   175  168  169 1   
   176  168  170 1   
   177  177  178 1   
   178  177  182 1   
   179  178  179 1   
   180  178  180 1   
   181  178  181 1   
   182  184  185 1   
   183  184  186 1   
   184  187  188 1   
   185  187  189 1   
   186  190  191 1   
   187  190  192 1   
   188  193  194 1   
   189  193  195 1   
@<TRIPOS>SUBSTRUCTURE
     1 MOL         1 TEMP              0 ****  ****    0 ROOT
