@<TRIPOS>MOLECULE
MOL
  179   176     1     0     0
SMALL
resp


@<TRIPOS>ATOM
      1 C1          3.5410    0.8900    6.1850 c3        1 MOL     -0.349392
      2 C2          3.2640    1.0580    4.7040 c         1 MOL      0.810347
      3 O1          4.1000    0.7580    3.8430 o         1 MOL     -0.589738
      4 H1          4.0020    1.7990    6.5730 hc        1 MOL      0.088854
      5 H2          2.6050    0.7050    6.7110 hc        1 MOL      0.088854
      6 H3          4.2170    0.0480    6.3360 hc        1 MOL      0.088854
      7 N1          2.0180    1.4240    4.3700 n         1 MOL     -0.600037
      8 C3          1.6290    1.7030    2.9740 c3        1 MOL     -0.347472
      9 C4          2.2810    2.9810    2.3680 c         1 MOL      0.736215
     10 O2          2.2900    4.0420    3.0240 o         1 MOL     -0.513387
     11 C5          0.1290    1.8090    3.0020 c3        1 MOL      0.156526
     12 C6         -0.5910    1.7940    1.7000 c         1 MOL      0.386385
     13 O3         -1.8570    1.7120    1.6120 o         1 MOL     -0.680326
     14 O4          0.0800    1.7000    0.6190 o         1 MOL     -0.680326
     15 H4          1.2750    1.1840    5.0120 hn        1 MOL      0.338576
     16 H5          1.8630    0.8140    2.3980 h1        1 MOL      0.120637
     17 H6         -0.1650    2.7850    3.3950 hc        1 MOL      0.012222
     18 H7         -0.3050    1.0300    3.6340 hc        1 MOL      0.012222
     19 N2          2.8700    2.8570    1.1500 n         1 MOL     -0.369805
     20 C7          3.5300    3.9640    0.4490 c3        1 MOL     -0.246821
     21 C8          2.4260    4.8670   -0.0710 c         1 MOL      0.437806
     22 O5          2.4760    6.0890    0.1290 o         1 MOL     -0.520185
     23 C9          4.3790    3.4550   -0.7290 c3        1 MOL      0.283511
     24 C10         5.2920    4.6040   -1.1310 c3        1 MOL     -0.173708
     25 C11         6.3510    4.3020   -2.1680 c3        1 MOL      0.013379
     26 C12         5.8640    3.4940   -3.3830 c3        1 MOL      0.067922
     27 N3          6.9560    2.9240   -4.2680 n4        1 MOL     -0.464316
     28 H8          2.7490    1.9320    0.7640 hn        1 MOL      0.268213
     29 H9          4.2260    4.4850    1.0960 h1        1 MOL      0.168187
     30 H10         3.8600    3.0730   -1.6010 hc        1 MOL     -0.028552
     31 H11         4.9250    2.5670   -0.4040 hc        1 MOL     -0.028552
     32 H12         5.7810    4.9710   -0.2380 hc        1 MOL      0.075475
     33 H13         4.6290    5.3330   -1.5980 hc        1 MOL      0.075475
     34 H14         7.2070    3.8310   -1.6890 hc        1 MOL      0.036085
     35 H15         6.7050    5.2810   -2.4750 hc        1 MOL      0.036085
     36 H16         5.1850    4.0820   -4.0010 hx        1 MOL      0.058142
     37 H17         5.2730    2.6440   -3.0460 hx        1 MOL      0.058142
     38 H18         7.6260    3.6070   -4.5840 hn        1 MOL      0.327170
     39 H19         7.4520    2.2880   -3.6740 hn        1 MOL      0.327170
     40 H20         6.5670    2.4660   -5.0780 hn        1 MOL      0.327170
     41 N4          1.4000    4.3840   -0.7470 n         1 MOL     -0.294362
     42 C13         0.2920    5.2140   -1.2090 c3        1 MOL     -0.057275
     43 C14        -0.7870    5.5340   -0.1350 c         1 MOL      0.511514
     44 O6         -1.4530    6.5370   -0.2200 o         1 MOL     -0.557265
     45 C15        -0.3760    4.5060   -2.4080 c3        1 MOL     -0.305395
     46 C16        -0.8890    3.1370   -2.0970 c         1 MOL      0.740624
     47 O7         -1.9100    3.0050   -1.3590 o         1 MOL     -0.774243
     48 O8         -0.2230    2.1120   -2.3490 o         1 MOL     -0.774243
     49 H21         1.4090    3.3860   -0.9030 hn        1 MOL      0.266886
     50 H22         0.6480    6.1420   -1.6580 h1        1 MOL      0.131809
     51 H23         0.2990    4.5450   -3.2690 hc        1 MOL      0.102332
     52 H24        -1.1990    5.1140   -2.8000 hc        1 MOL      0.102332
     53 N5         -1.0460    4.7020    0.8640 n         1 MOL     -0.054981
     54 C17        -2.0870    4.8240    1.8640 c3        1 MOL     -0.127077
     55 C18        -3.5120    4.5860    1.4650 c         1 MOL      0.599788
     56 O9         -4.3600    5.0970    2.1970 o         1 MOL     -0.612887
     57 H25        -0.4700    3.8660    0.8380 hn        1 MOL      0.104086
     58 H26        -2.1460    5.7850    2.3680 h1        1 MOL      0.077672
     59 H27        -1.8530    4.0970    2.6430 h1        1 MOL      0.077672
     60 N6         -3.7480    3.8780    0.4540 n         1 MOL     -0.157925
     61 C19        -5.0770    3.6130   -0.0680 c3        1 MOL     -0.003078
     62 C20        -5.2650    2.2170   -0.7440 c         1 MOL      0.518180
     63 O10        -4.3370    1.4900   -1.0070 o         1 MOL     -0.477860
     64 C21        -5.4290    4.7460   -1.0050 c3        1 MOL     -0.298835
     65 C22        -5.0270    4.6170   -2.4710 c         1 MOL      0.570803
     66 N7         -3.8260    4.1630   -2.8650 n         1 MOL     -0.624233
     67 O11        -5.7460    4.9800   -3.3730 o         1 MOL     -0.576765
     68 H28        -2.9360    3.5260   -0.0430 hn        1 MOL      0.103591
     69 H29        -5.7590    3.6930    0.7690 h1        1 MOL      0.073338
     70 H30        -5.0130    5.6810   -0.6480 hc        1 MOL      0.109939
     71 H31        -6.5090    4.7650   -0.8720 hc        1 MOL      0.109939
     72 H32        -3.1690    3.8640   -2.1640 hn        1 MOL      0.314692
     73 H33        -3.5520    4.3330   -3.8190 hn        1 MOL      0.314692
     74 N8         -6.5210    1.8930   -0.8800 n         1 MOL     -0.354764
     75 C23        -6.9480    0.5300   -1.2550 c3        1 MOL     -0.383376
     76 C24        -6.4840   -0.4670   -0.2730 c         1 MOL      0.738541
     77 O12        -6.5390   -0.3450    0.9540 o         1 MOL     -0.542841
     78 H34        -7.2530    2.4570   -0.4870 hn        1 MOL      0.331074
     79 H35        -6.4670    0.3870   -2.2220 h1        1 MOL      0.168973
     80 H36        -8.0420    0.4890   -1.2740 h1        1 MOL      0.168973
     81 N9         -5.7950   -1.4740   -0.7890 n         1 MOL     -0.772871
     82 C25        -5.1870   -2.6150   -0.0140 c3        1 MOL      0.551007
     83 C26        -3.9170   -2.1150    0.7870 c         1 MOL      0.073524
     84 O13        -3.4710   -0.9980    0.5370 o         1 MOL     -0.328925
     85 C27        -4.9300   -3.7980   -0.9850 c3        1 MOL     -0.032383
     86 C28        -6.1570   -4.4540   -1.5950 ca        1 MOL      0.036922
     87 C29        -7.1890   -4.8470   -0.6660 ca        1 MOL     -0.168253
     88 C30        -6.2260   -4.7930   -2.9590 ca        1 MOL     -0.168253
     89 C31        -8.3270   -5.5390   -1.1250 ca        1 MOL     -0.265721
     90 C32        -7.4590   -5.3710   -3.4060 ca        1 MOL     -0.265721
     91 C33        -8.4660   -5.7900   -2.4680 ca        1 MOL      0.346759
     92 O14        -9.6180   -6.4210   -2.9460 oh        1 MOL     -0.465869
     93 H37        -5.3200   -1.3770   -1.6700 hn        1 MOL      0.306194
     94 H38        -5.9130   -3.0570    0.6760 h1        1 MOL      0.009359
     95 H39        -4.5010   -4.5580   -0.3320 hc        1 MOL     -0.013966
     96 H40        -4.2500   -3.5700   -1.8120 hc        1 MOL     -0.013966
     97 H41        -7.1330   -4.6990    0.4050 ha        1 MOL      0.140553
     98 H42        -5.5260   -4.4000   -3.6660 ha        1 MOL      0.140553
     99 H43        -9.1480   -5.7540   -0.4490 ha        1 MOL      0.163717
    100 H44        -7.5870   -5.7470   -4.4110 ha        1 MOL      0.163717
    101 H45        -9.6300   -6.3880   -3.9070 ho        1 MOL      0.338299
    102 N10        -3.4220   -2.9530    1.6680 n         1 MOL     -0.509797
    103 C34        -2.3810   -2.6830    2.6780 c3        1 MOL      0.270749
    104 C35        -1.0170   -2.2530    2.1830 c         1 MOL      0.498059
    105 O15        -0.9110   -1.2630    1.4530 o         1 MOL     -0.520031
    106 C36        -2.9270   -1.7370    3.7680 c3        1 MOL      0.328080
    107 C37        -2.0180   -1.6370    5.0480 c3        1 MOL     -0.129347
    108 C38        -4.3140   -1.8860    4.3790 c3        1 MOL     -0.348150
    109 C39        -2.0380   -2.9200    5.9560 c3        1 MOL     -0.118149
    110 H46        -3.8520   -3.8510    1.8240 hn        1 MOL      0.298693
    111 H47        -2.1560   -3.6110    3.2080 h1        1 MOL     -0.040600
    112 H48        -2.9430   -0.6780    3.4980 hc        1 MOL      0.016249
    113 H49        -2.3670   -0.7680    5.5930 hc        1 MOL      0.058264
    114 H50        -0.9840   -1.4430    4.7560 hc        1 MOL      0.058264
    115 H51        -4.6070   -2.9040    4.6500 hc        1 MOL      0.087781
    116 H52        -4.4380   -1.2170    5.2330 hc        1 MOL      0.087781
    117 H53        -5.0460   -1.5650    3.6460 hc        1 MOL      0.087781
    118 H54        -1.6320   -2.5650    6.9060 hc        1 MOL      0.020496
    119 H55        -3.0280   -3.3490    6.1210 hc        1 MOL      0.020496
    120 H56        -1.4590   -3.7260    5.5180 hc        1 MOL      0.020496
    121 N11         0.0660   -2.7980    2.8010 n         1 MOL     -0.696368
    122 C40         1.4350   -2.2110    2.8140 c3        1 MOL      0.074827
    123 C41         2.1420   -2.2510    1.4350 c         1 MOL      0.365640
    124 O16         3.2600   -1.7930    1.3370 o         1 MOL     -0.496688
    125 C42         2.3440   -2.9170    3.8440 c3        1 MOL     -0.143864
    126 O17         1.7910   -2.6380    5.1250 oh        1 MOL     -0.600777
    127 H57        -0.0830   -3.5840    3.4160 hn        1 MOL      0.366988
    128 H58         1.3090   -1.1450    3.0450 h1        1 MOL      0.277327
    129 H59         3.3580   -2.5070    3.8730 h1        1 MOL      0.176322
    130 H60         2.3210   -3.9990    3.6940 h1        1 MOL      0.176322
    131 H61         1.7020   -3.4220    5.6860 ho        1 MOL      0.405800
    132 N12         1.5500   -2.8040    0.3420 n         1 MOL     -0.347055
    133 C43         2.1960   -2.7770   -0.9680 c3        1 MOL      0.109448
    134 C44         1.9030   -1.4170   -1.7170 c         1 MOL      0.584033
    135 O18         0.7310   -0.9490   -1.7180 o         1 MOL     -0.617992
    136 C45         1.6230   -3.9540   -1.8700 c3        1 MOL     -0.276163
    137 H62         0.6690   -3.2580    0.5270 hn        1 MOL      0.276972
    138 H63         3.2850   -2.8680   -0.8740 h1        1 MOL      0.121663
    139 H64         2.0710   -3.9010   -2.8540 hc        1 MOL      0.073723
    140 H65         1.8910   -4.9110   -1.4210 hc        1 MOL      0.073723
    141 H66         0.5360   -4.0060   -1.9090 hc        1 MOL      0.073723
    142 N13         2.9120   -0.8150   -2.2930 n         1 MOL     -0.475362
    143 C46         4.3610   -1.1620   -2.2750 c3        1 MOL      0.057154
    144 C47         4.7660   -2.5190   -3.0290 c         1 MOL      0.662854
    145 O19         4.3060   -2.6140   -4.1530 o         1 MOL     -0.586585
    146 C48         5.1650   -0.0020   -2.7480 c3        1 MOL     -0.055214
    147 H67         2.6220   -0.0720   -2.9150 hn        1 MOL      0.316355
    148 H68         4.6500   -1.3630   -1.2410 h1        1 MOL      0.092957
    149 H69         5.0220    0.9250   -2.2050 hc        1 MOL      0.013595
    150 H70         6.2290   -0.2410   -2.7620 hc        1 MOL      0.013595
    151 H71         4.9870    0.0850   -3.8180 hc        1 MOL      0.013595
    152 N14         5.4650   -3.4280   -2.4180 n         1 MOL     -0.684077
    153 C49         5.9610   -3.5430   -1.0570 c3        1 MOL      0.125968
    154 C50         5.8620   -4.9480   -0.4090 c         1 MOL      0.328566
    155 O20         5.4830   -5.0500    0.7880 o         1 MOL     -0.493524
    156 C51         7.5300   -3.2290   -0.9370 c3        1 MOL      0.271079
    157 C52         8.0530   -1.8140   -1.3510 c3        1 MOL     -0.265121
    158 C53         9.4650   -1.4570   -0.8610 c         1 MOL      0.581929
    159 O21        10.4780   -1.9450   -1.4100 o         1 MOL     -0.631571
    160 O22         9.7080   -0.8470    0.2150 o         1 MOL     -0.631571
    161 H72         5.9080   -4.0380   -3.0910 hn        1 MOL      0.349174
    162 H73         5.3370   -2.8790   -0.4690 h1        1 MOL      0.069182
    163 H74         8.0650   -3.8520   -1.6590 hc        1 MOL     -0.023183
    164 H75         7.6960   -3.3610    0.1340 hc        1 MOL     -0.023183
    165 H76         7.3420   -1.1470   -0.8620 hc        1 MOL      0.016540
    166 H77         7.8240   -1.6650   -2.4050 hc        1 MOL      0.016540
    167 N15         6.1190   -6.0170   -1.1370 n         1 MOL     -0.305611
    168 C54         6.1610   -7.3970   -0.6930 c3        1 MOL     -0.119711
    169 H78         5.7020   -8.0340   -1.4480 h1        1 MOL      0.090629
    170 H79         7.1980   -7.7000   -0.5450 h1        1 MOL      0.090629
    171 H80         5.6160   -7.4940    0.2460 h1        1 MOL      0.090629
    172 H81         6.5630   -5.8240   -2.0240 hn        1 MOL      0.262752
    173 Ca1        -1.5860    0.4910   -0.8580 Ca        1 MOL      1.834540
    174 O23        -1.6960   -2.6680   -1.2700 oh        1 MOL     -0.842332
    175 H82        -1.6880   -2.7660   -2.2170 ho        1 MOL      0.418667
    176 H83        -1.4320   -3.5200   -0.9180 ho        1 MOL      0.418667
    177 O24        -2.7540    0.0190   -3.0680 oh        1 MOL     -0.842332
    178 H84        -3.5620    0.4070   -3.4130 ho        1 MOL      0.418667
    179 H85        -2.6760   -0.8190   -3.5370 ho        1 MOL      0.418667
@<TRIPOS>BOND
     1    1    2 1   
     2    1    4 1   
     3    1    5 1   
     4    1    6 1   
     5    2    3 2   
     6    2    7 1   
     7    7    8 1   
     8    7   15 1   
     9    8    9 1   
    10    8   11 1   
    11    8   16 1   
    12    9   10 2   
    13    9   19 1   
    14   11   12 1   
    15   11   17 1   
    16   11   18 1   
    17   12   13 1   
    18   12   14 1   
    19   19   20 1   
    20   19   28 1   
    21   20   21 1   
    22   20   23 1   
    23   20   29 1   
    24   21   22 2   
    25   21   41 1   
    26   23   24 1   
    27   23   30 1   
    28   23   31 1   
    29   24   25 1   
    30   24   32 1   
    31   24   33 1   
    32   25   26 1   
    33   25   34 1   
    34   25   35 1   
    35   26   27 1   
    36   26   36 1   
    37   26   37 1   
    38   27   38 1   
    39   27   39 1   
    40   27   40 1   
    41   41   42 1   
    42   41   49 1   
    43   42   43 1   
    44   42   45 1   
    45   42   50 1   
    46   43   44 2   
    47   43   53 1   
    48   45   46 1   
    49   45   51 1   
    50   45   52 1   
    51   46   47 1   
    52   46   48 1   
    53   53   54 1   
    54   53   57 1   
    55   54   55 1   
    56   54   58 1   
    57   54   59 1   
    58   55   56 2   
    59   55   60 1   
    60   60   61 1   
    61   60   68 1   
    62   61   62 1   
    63   61   64 1   
    64   61   69 1   
    65   62   63 2   
    66   62   74 1   
    67   64   65 1   
    68   64   70 1   
    69   64   71 1   
    70   65   66 1   
    71   65   67 2   
    72   66   72 1   
    73   66   73 1   
    74   74   75 1   
    75   74   78 1   
    76   75   76 1   
    77   75   79 1   
    78   75   80 1   
    79   76   77 2   
    80   76   81 1   
    81   81   82 1   
    82   81   93 1   
    83   82   83 1   
    84   82   85 1   
    85   82   94 1   
    86   83   84 2   
    87   83  102 1   
    88   85   86 1   
    89   85   95 1   
    90   85   96 1   
    91   86   87 ar  
    92   86   88 ar  
    93   87   89 ar  
    94   87   97 1   
    95   88   90 ar  
    96   88   98 1   
    97   89   91 ar  
    98   89   99 1   
    99   90   91 ar  
   100   90  100 1   
   101   91   92 1   
   102   92  101 1   
   103  102  103 1   
   104  102  110 1   
   105  103  104 1   
   106  103  106 1   
   107  103  111 1   
   108  104  105 2   
   109  104  121 1   
   110  106  107 1   
   111  106  108 1   
   112  106  112 1   
   113  107  109 1   
   114  107  113 1   
   115  107  114 1   
   116  108  115 1   
   117  108  116 1   
   118  108  117 1   
   119  109  118 1   
   120  109  119 1   
   121  109  120 1   
   122  121  122 1   
   123  121  127 1   
   124  122  123 1   
   125  122  125 1   
   126  122  128 1   
   127  123  124 2   
   128  123  132 1   
   129  125  126 1   
   130  125  129 1   
   131  125  130 1   
   132  126  131 1   
   133  132  133 1   
   134  132  137 1   
   135  133  134 1   
   136  133  136 1   
   137  133  138 1   
   138  134  135 2   
   139  134  142 1   
   140  136  139 1   
   141  136  140 1   
   142  136  141 1   
   143  142  143 1   
   144  142  147 1   
   145  143  144 1   
   146  143  146 1   
   147  143  148 1   
   148  144  145 2   
   149  144  152 1   
   150  146  149 1   
   151  146  150 1   
   152  146  151 1   
   153  152  153 1   
   154  152  161 1   
   155  153  154 1   
   156  153  156 1   
   157  153  162 1   
   158  154  155 2   
   159  154  167 1   
   160  156  157 1   
   161  156  163 1   
   162  156  164 1   
   163  157  158 1   
   164  157  165 1   
   165  157  166 1   
   166  158  159 1   
   167  158  160 1   
   168  167  168 1   
   169  167  172 1   
   170  168  169 1   
   171  168  170 1   
   172  168  171 1   
   173  174  175 1   
   174  174  176 1   
   175  177  178 1   
   176  177  179 1   
@<TRIPOS>SUBSTRUCTURE
     1 MOL         1 TEMP              0 ****  ****    0 ROOT
