@<TRIPOS>MOLECULE
MOL
  189   185     1     0     0
SMALL
resp


@<TRIPOS>ATOM
      1 C1          4.7340    4.0430   -3.7290 c3        1 MOL     -0.503315
      2 C2          5.4170    3.4310   -2.5410 c         1 MOL      0.691440
      3 O1          4.7590    3.3270   -1.5150 o         1 MOL     -0.534981
      4 H1          5.4230    4.0630   -4.5740 hc        1 MOL      0.131469
      5 H2          3.8570    3.4500   -3.9900 hc        1 MOL      0.131469
      6 H3          4.4260    5.0610   -3.4870 hc        1 MOL      0.131469
      7 N1          6.6450    3.0190   -2.6320 n         1 MOL     -0.528717
      8 C3          7.3670    2.0910   -1.7480 c3        1 MOL      0.269358
      9 C4          6.4880    0.8440   -1.4920 c         1 MOL      0.511487
     10 O2          5.9010    0.6210   -0.4530 o         1 MOL     -0.744387
     11 C5          7.9370    2.6880   -0.5050 c3        1 MOL     -0.290423
     12 C6          7.1800    3.7720    0.2860 c         1 MOL      0.729352
     13 O3          6.2000    3.4580    0.9920 o         1 MOL     -0.711978
     14 O4          7.5550    5.0000    0.2220 o         1 MOL     -0.711978
     15 H4          7.2250    3.1080   -3.4460 hn        1 MOL      0.290523
     16 H5          8.2090    1.7790   -2.3630 h1        1 MOL      0.020772
     17 H6          8.9180    3.0550   -0.8010 hc        1 MOL      0.049463
     18 H7          8.1030    1.8930    0.2310 hc        1 MOL      0.049463
     19 N2          6.4570   -0.0040   -2.4800 n         1 MOL     -0.670305
     20 C7          5.6830   -1.2720   -2.4760 c3        1 MOL      0.640102
     21 C8          6.2270   -2.3100   -1.5810 c         1 MOL      0.170896
     22 O5          6.7810   -3.3140   -2.0140 o         1 MOL     -0.528215
     23 C9          4.2090   -1.0510   -2.4080 c3        1 MOL     -0.009756
     24 C10         3.3990   -2.3590   -2.6500 c3        1 MOL     -0.155420
     25 C11         3.6880    0.0910   -3.2970 c3        1 MOL     -0.274088
     26 C12         3.6070   -3.1370   -4.0240 c3        1 MOL     -0.332665
     27 H8          6.9090    0.3180   -3.3200 hn        1 MOL      0.281655
     28 H9          5.9310   -1.7860   -3.4040 h1        1 MOL     -0.072062
     29 H10         4.0210   -0.8740   -1.3550 hc        1 MOL     -0.098340
     30 H11         2.3580   -2.0690   -2.5910 hc        1 MOL      0.147101
     31 H12         3.5020   -2.9390   -1.7310 hc        1 MOL      0.147101
     32 H13         2.6020    0.0860   -3.3430 hc        1 MOL      0.060594
     33 H14         3.9410    1.0860   -2.9460 hc        1 MOL      0.060594
     34 H15         4.0460   -0.0790   -4.3100 hc        1 MOL      0.060594
     35 H16         4.5730   -3.6390   -3.9930 hc        1 MOL      0.077023
     36 H17         2.7610   -3.7940   -4.2220 hc        1 MOL      0.077023
     37 H18         3.6330   -2.4980   -4.9100 hc        1 MOL      0.077023
     38 N3          6.1270   -2.0260   -0.2560 n         1 MOL      0.048189
     39 C13         6.9020   -2.7240    0.7470 c3        1 MOL     -0.028772
     40 C14         6.3700   -4.1460    1.1140 c         1 MOL      0.724147
     41 O6          7.1660   -5.0320    0.9500 o         1 MOL     -0.579961
     42 C15         6.9530   -1.8270    2.0130 c3        1 MOL     -0.429661
     43 C16         7.7590   -2.3620    3.1510 c         1 MOL      0.733061
     44 O7          8.8230   -2.9660    2.8480 o         1 MOL     -0.708923
     45 O8          7.3950   -2.3890    4.3390 o         1 MOL     -0.708923
     46 H19         5.7560   -1.1100   -0.0880 hn        1 MOL      0.284561
     47 H20         7.8980   -2.8810    0.3430 h1        1 MOL      0.049572
     48 H21         5.9230   -1.6140    2.3150 hc        1 MOL      0.140093
     49 H22         7.2910   -0.8500    1.6720 hc        1 MOL      0.140093
     50 N4          5.0580   -4.4060    1.3330 n         1 MOL     -0.655514
     51 C17         3.9120   -3.4380    1.1840 c3        1 MOL      0.230775
     52 C18         2.6860   -3.9470    1.8800 c         1 MOL      0.640461
     53 O9          2.1710   -5.0050    1.4910 o         1 MOL     -0.604179
     54 H23         4.8350   -5.3870    1.4110 hn        1 MOL      0.305221
     55 H24         3.6240   -3.3300    0.1410 h1        1 MOL     -0.030203
     56 H25         4.2430   -2.5160    1.6810 h1        1 MOL     -0.030203
     57 N5          1.9750   -3.2460    2.7450 n         1 MOL     -0.592668
     58 C19         2.0690   -1.8230    2.9900 c3        1 MOL      0.089648
     59 C20         2.3540   -0.9170    1.7450 c         1 MOL     -0.030950
     60 O10         3.4460   -0.4410    1.5670 o         1 MOL     -0.471196
     61 C21         3.0250   -1.6180    4.1700 c3        1 MOL     -0.086840
     62 C22         3.0230   -0.1630    4.8140 c         1 MOL      0.715116
     63 O11         4.0170    0.1560    5.4940 o         1 MOL     -0.692330
     64 O12         1.9800    0.5170    4.6540 o         1 MOL     -0.692330
     65 H26         1.1110   -3.6280    3.0940 hn        1 MOL      0.334166
     66 H27         1.1290   -1.5290    3.4490 h1        1 MOL      0.053961
     67 H28         4.0680   -1.8450    3.9440 hc        1 MOL      0.046792
     68 H29         2.6820   -2.2270    5.0060 hc        1 MOL      0.046792
     69 N6          1.4380   -0.8370    0.7920 n         1 MOL      0.000395
     70 C23         0.0560   -1.1310    0.8270 c3        1 MOL     -0.029929
     71 C24        -0.2790   -2.5030    0.2470 c         1 MOL      0.427120
     72 O13         0.3760   -2.9600   -0.7190 o         1 MOL     -0.467562
     73 H30         1.6930   -0.2980   -0.0160 hn        1 MOL      0.154407
     74 H31        -0.5370   -0.3840    0.2930 h1        1 MOL      0.052073
     75 H32        -0.1780   -1.0160    1.8920 h1        1 MOL      0.052073
     76 N7         -1.3370   -3.1870    0.7480 n         1 MOL     -0.396292
     77 C25        -1.8660   -4.5210    0.2190 c3        1 MOL     -0.100250
     78 C26        -2.2430   -4.4950   -1.3290 c         1 MOL      0.421071
     79 O14        -2.3430   -5.5350   -1.9920 o         1 MOL     -0.535293
     80 C27        -2.9750   -5.1520    1.1410 c3        1 MOL      0.062763
     81 C28        -4.3180   -4.4330    1.0540 c3        1 MOL     -0.159857
     82 C29        -4.2450   -2.9080    1.2510 c         1 MOL      0.532748
     83 N8         -4.3210   -2.2880    2.3930 n         1 MOL     -0.697654
     84 O15        -4.0390   -2.1850    0.2840 o         1 MOL     -0.488697
     85 H33        -1.8830   -2.7150    1.4560 hn        1 MOL      0.239475
     86 H34        -1.0660   -5.2550    0.2920 h1        1 MOL      0.149737
     87 H35        -2.5830   -5.1300    2.1620 hc        1 MOL      0.034374
     88 H36        -3.0720   -6.2080    0.9110 hc        1 MOL      0.034374
     89 H37        -4.9760   -4.8720    1.8040 hc        1 MOL      0.057788
     90 H38        -4.7570   -4.5550    0.0650 hc        1 MOL      0.057788
     91 H39        -4.6670   -2.6170    3.2820 hn        1 MOL      0.344080
     92 H40        -3.9420   -1.3490    2.4910 hn        1 MOL      0.344080
     93 N9         -2.3760   -3.3290   -1.9290 n         1 MOL     -0.006904
     94 C30        -2.8190   -3.0110   -3.3000 c3        1 MOL     -0.224948
     95 C31        -4.2840   -2.6240   -3.4080 c         1 MOL      0.649872
     96 O16        -4.8940   -2.7510   -4.4500 o         1 MOL     -0.593905
     97 C32        -1.9050   -1.9200   -3.8470 c3        1 MOL      0.029453
     98 C33        -0.4430   -2.3590   -4.0190 c3        1 MOL     -0.027958
     99 C34        -1.9010   -0.7000   -2.9060 c3        1 MOL     -0.027958
    100 H41        -2.1030   -2.4550   -1.4970 hn        1 MOL      0.158620
    101 H42        -2.6830   -3.8480   -4.0010 h1        1 MOL      0.111659
    102 H43        -2.2330   -1.5110   -4.8000 hc        1 MOL      0.025930
    103 H44        -0.3840   -3.1930   -4.7130 hc        1 MOL      0.009948
    104 H45         0.0680   -1.5100   -4.4800 hc        1 MOL      0.009948
    105 H46         0.0080   -2.4620   -3.0290 hc        1 MOL      0.009948
    106 H47        -1.3150   -0.7990   -1.9980 hc        1 MOL      0.009948
    107 H48        -1.4900    0.1160   -3.5050 hc        1 MOL      0.009948
    108 H49        -2.9240   -0.4000   -2.6800 hc        1 MOL      0.009948
    109 N10        -4.9570   -2.0770   -2.3470 n         1 MOL     -0.380478
    110 C35        -6.3420   -1.7060   -2.2750 c3        1 MOL      0.073738
    111 C36        -6.6420   -0.3620   -1.5690 c         1 MOL      0.421603
    112 O17        -7.6840    0.1870   -1.8600 o         1 MOL     -0.534813
    113 C37        -7.0130   -2.8080   -1.4590 c3        1 MOL     -0.163993
    114 C38        -7.1220   -4.2220   -2.1650 c         1 MOL      0.584582
    115 N11        -7.3870   -4.3250   -3.4240 n         1 MOL     -0.752650
    116 O18        -6.8940   -5.2560   -1.5220 o         1 MOL     -0.566119
    117 H50        -4.4760   -1.9000   -1.4800 hn        1 MOL      0.198587
    118 H51        -6.9410   -1.6330   -3.1810 h1        1 MOL      0.054442
    119 H52        -8.0590   -2.5910   -1.2410 hc        1 MOL      0.064539
    120 H53        -6.4070   -2.9410   -0.5660 hc        1 MOL      0.064539
    121 H54        -7.7010   -3.5590   -3.9890 hn        1 MOL      0.371222
    122 H55        -7.2580   -5.2540   -3.8030 hn        1 MOL      0.371222
    123 N12        -5.7270    0.0690   -0.7060 n         1 MOL     -0.200600
    124 C39        -5.8540    1.3030    0.0800 c3        1 MOL      0.220312
    125 C40        -4.6410    2.2840   -0.0690 c         1 MOL      0.240917
    126 O19        -3.4920    1.8790    0.0500 o         1 MOL     -0.438829
    127 C41        -5.9080    1.0740    1.6080 c3        1 MOL     -0.088328
    128 C42        -7.1640    0.4380    2.2500 ca        1 MOL     -0.026672
    129 C43        -8.2050    1.2490    2.8500 ca        1 MOL     -0.138564
    130 C44        -7.3950   -0.9170    2.1090 ca        1 MOL     -0.138564
    131 C45        -9.4150    0.6560    3.3380 ca        1 MOL     -0.262637
    132 C46        -8.6270   -1.4470    2.4810 ca        1 MOL     -0.262637
    133 C47        -9.6090   -0.7400    3.1490 ca        1 MOL      0.362537
    134 O20       -10.8160   -1.2350    3.5490 oh        1 MOL     -0.572952
    135 H56        -4.9050   -0.4320   -0.3960 hn        1 MOL      0.113883
    136 H57        -6.6980    1.8690   -0.3020 h1        1 MOL     -0.001104
    137 H58        -5.8590    2.0690    2.0680 hc        1 MOL      0.084705
    138 H59        -5.0360    0.5570    2.0130 hc        1 MOL      0.084705
    139 H60        -8.1670    2.3260    2.7770 ha        1 MOL      0.143858
    140 H61        -6.6940   -1.5510    1.5790 ha        1 MOL      0.143858
    141 H62       -10.2140    1.3160    3.6190 ha        1 MOL      0.133169
    142 H63        -8.8180   -2.4920    2.2890 ha        1 MOL      0.133169
    143 H64       -11.3500   -0.6700    4.1170 ho        1 MOL      0.407276
    144 N13        -4.9820    3.5870   -0.1960 n         1 MOL     -0.474854
    145 C48        -4.1290    4.7700    0.1750 c3        1 MOL      0.040565
    146 C49        -2.7930    4.9700   -0.5680 c         1 MOL      0.589197
    147 O21        -2.3150    6.1000   -0.7550 o         1 MOL     -0.571640
    148 C50        -4.0620    4.8130    1.7460 c3        1 MOL     -0.150097
    149 C51        -5.3910    5.2060    2.3930 c3        1 MOL     -0.175854
    150 C52        -5.4170    5.2160    3.8770 c         1 MOL      0.733413
    151 O22        -4.5950    5.8720    4.5770 o         1 MOL     -0.730203
    152 O23        -6.4030    4.7510    4.4340 o         1 MOL     -0.730203
    153 H65        -5.9420    3.7350   -0.4640 hn        1 MOL      0.341822
    154 H66        -4.7240    5.6260   -0.1400 h1        1 MOL      0.067448
    155 H67        -3.2830    5.4880    2.1280 hc        1 MOL      0.069779
    156 H68        -3.6800    3.9400    2.2680 hc        1 MOL      0.069779
    157 H69        -6.2160    4.6000    2.0220 hc        1 MOL      0.027993
    158 H70        -5.6130    6.2170    2.0780 hc        1 MOL      0.027993
    159 N14        -2.1240    3.9620   -1.1770 n         1 MOL     -0.422179
    160 C53        -0.8740    4.1710   -1.9470 c3        1 MOL     -0.137460
    161 C54        -1.0540    5.0580   -3.2130 c         1 MOL      0.517309
    162 O24        -0.0680    5.5010   -3.8120 o         1 MOL     -0.551854
    163 C55        -0.4190    2.7280   -2.4690 c3        1 MOL     -0.370600
    164 C56         0.0820    1.6830   -1.4270 c3        1 MOL      0.523081
    165 C57         1.4800    2.0260   -0.7930 c         1 MOL      0.646688
    166 O25         1.6650    3.1480   -0.3440 o         1 MOL     -0.669268
    167 O26         2.4190    1.2000   -0.7650 o         1 MOL     -0.669268
    168 H71        -2.2910    3.0310   -0.8160 hn        1 MOL      0.319298
    169 H72        -0.0720    4.5020   -1.2870 h1        1 MOL      0.180718
    170 H73         0.3500    2.9410   -3.2030 hc        1 MOL      0.093527
    171 H74        -1.2440    2.3780   -3.0880 hc        1 MOL      0.093527
    172 H75         0.1720    0.6950   -1.8880 hc        1 MOL     -0.170258
    173 H76        -0.6820    1.6040   -0.6560 hc        1 MOL     -0.170258
    174 N15        -2.2990    5.3350   -3.5340 n         1 MOL     -0.165648
    175 C58        -2.7840    6.0850   -4.7290 c3        1 MOL     -0.190607
    176 H77        -2.0340    6.0340   -5.5180 h1        1 MOL      0.084106
    177 H78        -3.7150    5.6430   -5.0830 h1        1 MOL      0.084106
    178 H79        -2.9570    7.1270   -4.4590 h1        1 MOL      0.084106
    179 H80        -3.0380    4.9340   -2.9670 hn        1 MOL      0.180670
    180 Ca1         4.0120    2.0990    0.9120 Ca        1 MOL      1.819763
    181 O27         5.2080    1.8410    3.3600 oh        1 MOL     -0.877180
    182 H81         4.8500    1.4240    4.1430 ho        1 MOL      0.420214
    183 H82         5.8940    2.4190    3.6900 ho        1 MOL      0.420214
    184 O28         1.9000    2.0830    2.4910 oh        1 MOL     -0.877180
    185 H83         1.0830    2.5290    2.2400 ho        1 MOL      0.420214
    186 H84         1.6580    1.5490    3.2550 ho        1 MOL      0.420214
    187 O29         3.4370    4.4460    1.7490 oh        1 MOL     -0.877180
    188 H85         3.5050    4.8110    2.6290 ho        1 MOL      0.420214
    189 H86         2.9640    5.1080    1.2450 ho        1 MOL      0.420214
@<TRIPOS>BOND
     1    1    2 1   
     2    1    4 1   
     3    1    5 1   
     4    1    6 1   
     5    2    3 2   
     6    2    7 1   
     7    7    8 1   
     8    7   15 1   
     9    8    9 1   
    10    8   11 1   
    11    8   16 1   
    12    9   10 2   
    13    9   19 1   
    14   11   12 1   
    15   11   17 1   
    16   11   18 1   
    17   12   13 1   
    18   12   14 1   
    19   19   20 1   
    20   19   27 1   
    21   20   21 1   
    22   20   23 1   
    23   20   28 1   
    24   21   22 2   
    25   21   38 1   
    26   23   24 1   
    27   23   25 1   
    28   23   29 1   
    29   24   26 1   
    30   24   30 1   
    31   24   31 1   
    32   25   32 1   
    33   25   33 1   
    34   25   34 1   
    35   26   35 1   
    36   26   36 1   
    37   26   37 1   
    38   38   39 1   
    39   38   46 1   
    40   39   40 1   
    41   39   42 1   
    42   39   47 1   
    43   40   41 2   
    44   40   50 1   
    45   42   43 1   
    46   42   48 1   
    47   42   49 1   
    48   43   44 1   
    49   43   45 1   
    50   50   51 1   
    51   50   54 1   
    52   51   52 1   
    53   51   55 1   
    54   51   56 1   
    55   52   53 2   
    56   52   57 1   
    57   57   58 1   
    58   57   65 1   
    59   58   59 1   
    60   58   61 1   
    61   58   66 1   
    62   59   60 2   
    63   59   69 1   
    64   61   62 1   
    65   61   67 1   
    66   61   68 1   
    67   62   63 1   
    68   62   64 1   
    69   69   70 1   
    70   69   73 1   
    71   70   71 1   
    72   70   74 1   
    73   70   75 1   
    74   71   72 2   
    75   71   76 1   
    76   76   77 1   
    77   76   85 1   
    78   77   78 1   
    79   77   80 1   
    80   77   86 1   
    81   78   79 2   
    82   78   93 1   
    83   80   81 1   
    84   80   87 1   
    85   80   88 1   
    86   81   82 1   
    87   81   89 1   
    88   81   90 1   
    89   82   83 1   
    90   82   84 2   
    91   83   91 1   
    92   83   92 1   
    93   93   94 1   
    94   93  100 1   
    95   94   95 1   
    96   94   97 1   
    97   94  101 1   
    98   95   96 2   
    99   95  109 1   
   100   97   98 1   
   101   97   99 1   
   102   97  102 1   
   103   98  103 1   
   104   98  104 1   
   105   98  105 1   
   106   99  106 1   
   107   99  107 1   
   108   99  108 1   
   109  109  110 1   
   110  109  117 1   
   111  110  111 1   
   112  110  113 1   
   113  110  118 1   
   114  111  112 2   
   115  111  123 1   
   116  113  114 1   
   117  113  119 1   
   118  113  120 1   
   119  114  115 1   
   120  114  116 2   
   121  115  121 1   
   122  115  122 1   
   123  123  124 1   
   124  123  135 1   
   125  124  125 1   
   126  124  127 1   
   127  124  136 1   
   128  125  126 2   
   129  125  144 1   
   130  127  128 1   
   131  127  137 1   
   132  127  138 1   
   133  128  129 ar  
   134  128  130 ar  
   135  129  131 ar  
   136  129  139 1   
   137  130  132 ar  
   138  130  140 1   
   139  131  133 ar  
   140  131  141 1   
   141  132  133 ar  
   142  132  142 1   
   143  133  134 1   
   144  134  143 1   
   145  144  145 1   
   146  144  153 1   
   147  145  146 1   
   148  145  148 1   
   149  145  154 1   
   150  146  147 2   
   151  146  159 1   
   152  148  149 1   
   153  148  155 1   
   154  148  156 1   
   155  149  150 1   
   156  149  157 1   
   157  149  158 1   
   158  150  151 1   
   159  150  152 1   
   160  159  160 1   
   161  159  168 1   
   162  160  161 1   
   163  160  163 1   
   164  160  169 1   
   165  161  162 2   
   166  161  174 1   
   167  163  164 1   
   168  163  170 1   
   169  163  171 1   
   170  164  165 1   
   171  164  172 1   
   172  164  173 1   
   173  165  166 1   
   174  165  167 1   
   175  174  175 1   
   176  174  179 1   
   177  175  176 1   
   178  175  177 1   
   179  175  178 1   
   180  181  182 1   
   181  181  183 1   
   182  184  185 1   
   183  184  186 1   
   184  187  188 1   
   185  187  189 1   
@<TRIPOS>SUBSTRUCTURE
     1 MOL         1 TEMP              0 ****  ****    0 ROOT
