@<TRIPOS>MOLECULE
MOL
  198   191     1     0     0
SMALL
resp


@<TRIPOS>ATOM
      1 C1         -4.8420   -5.0170   -4.7880 c3        1 MOL     -0.399407
      2 C2         -4.3910   -3.8310   -3.7810 c         1 MOL      0.639601
      3 O1         -3.9480   -2.7400   -4.2230 o         1 MOL     -0.564383
      4 H1         -5.4440   -5.7450   -4.2450 hc        1 MOL      0.106589
      5 H2         -5.4300   -4.5960   -5.6040 hc        1 MOL      0.106589
      6 H3         -3.9570   -5.5080   -5.1930 hc        1 MOL      0.106589
      7 N1         -4.7940   -3.9360   -2.5290 n         1 MOL     -0.368347
      8 C3         -4.6750   -2.9970   -1.4200 c3        1 MOL      0.241152
      9 C4         -3.3370   -2.4000   -1.0830 c         1 MOL      0.272407
     10 O2         -3.1980   -1.6380   -0.1730 o         1 MOL     -0.453401
     11 C5         -5.4090   -3.4930   -0.1230 c3        1 MOL     -0.291319
     12 C6         -6.8210   -3.9890   -0.3300 c         1 MOL      0.690515
     13 O3         -7.0980   -4.9390   -1.1630 o         1 MOL     -0.672779
     14 O4         -7.7070   -3.6050    0.4530 o         1 MOL     -0.672779
     15 H4         -5.1200   -4.8410   -2.2260 hn        1 MOL      0.187024
     16 H5         -5.2100   -2.1170   -1.7630 h1        1 MOL      0.050211
     17 H6         -5.3510   -2.8010    0.7130 hc        1 MOL      0.062858
     18 H7         -4.7660   -4.3140    0.1790 hc        1 MOL      0.062858
     19 N2         -2.2720   -2.7020   -1.8450 n         1 MOL     -0.431429
     20 C7         -0.8470   -2.5030   -1.4170 c3        1 MOL      0.353332
     21 C8         -0.1250   -1.6240   -2.4130 c         1 MOL      0.222393
     22 O5         -0.2750   -1.8620   -3.5720 o         1 MOL     -0.475740
     23 C9         -0.1760   -3.9160   -1.4320 c3        1 MOL     -0.059644
     24 C10        -0.4740   -4.6180   -0.1530 c3        1 MOL      0.076005
     25 C11         0.4420   -5.8690   -0.0980 c3        1 MOL     -0.289429
     26 C12        -0.1830   -6.8860    0.9030 c3        1 MOL      0.137642
     27 N3          0.2940   -6.5720    2.2850 n4        1 MOL     -0.513305
     28 H8         -2.4590   -3.2540   -2.6630 hn        1 MOL      0.192215
     29 H9         -0.8060   -1.9690   -0.4750 h1        1 MOL      0.018163
     30 H10         0.8970   -3.8060   -1.5480 hc        1 MOL      0.049555
     31 H11        -0.4990   -4.5270   -2.2790 hc        1 MOL      0.049555
     32 H12        -1.5180   -4.9180   -0.1060 hc        1 MOL     -0.001355
     33 H13        -0.2600   -3.9730    0.6950 hc        1 MOL     -0.001355
     34 H14         1.4640   -5.6470    0.2010 hc        1 MOL      0.110867
     35 H15         0.3890   -6.3030   -1.0950 hc        1 MOL      0.110867
     36 H16        -0.0050   -7.9450    0.7340 hx        1 MOL      0.077244
     37 H17        -1.2750   -6.8980    0.8000 hx        1 MOL      0.077244
     38 H18        -0.3250   -6.8790    3.0320 hn        1 MOL      0.367545
     39 H19         1.2300   -6.8960    2.4830 hn        1 MOL      0.367545
     40 H20         0.2380   -5.5720    2.3700 hn        1 MOL      0.367545
     41 N4          0.6730   -0.6840   -1.9690 n         1 MOL     -0.263188
     42 C13         1.1540   -0.2880   -0.6730 c3        1 MOL     -0.041970
     43 C14         1.6200   -1.4490    0.2540 c         1 MOL      0.286965
     44 O6          0.9480   -1.7420    1.3020 o         1 MOL     -0.513012
     45 C15         0.1780    0.6630   -0.0290 c3        1 MOL     -0.006202
     46 C16         0.0850    2.0060   -0.7770 c         1 MOL      0.568579
     47 O7         -1.0270    2.6030   -0.6390 o         1 MOL     -0.743246
     48 O8          1.0480    2.5970   -1.3090 o         1 MOL     -0.743246
     49 H21         1.0410   -0.1680   -2.7510 hn        1 MOL      0.264495
     50 H22         2.0820    0.1960   -0.9900 h1        1 MOL      0.053878
     51 H23         0.3770    0.9090    1.0090 hc        1 MOL      0.096982
     52 H24        -0.7580    0.1060   -0.0560 hc        1 MOL      0.096982
     53 N5          2.6100   -2.2550   -0.1750 n         1 MOL     -0.126170
     54 C17         3.6250   -1.9270   -1.1970 c3        1 MOL     -0.011757
     55 C18         4.7390   -3.0120   -1.0500 c         1 MOL      0.462271
     56 O9          4.5170   -3.9330   -0.2470 o         1 MOL     -0.545270
     57 H25         2.8140   -3.1110    0.3240 hn        1 MOL      0.202446
     58 H26         4.0300   -0.9360   -1.0060 h1        1 MOL      0.033959
     59 H27         3.3530   -1.8590   -2.2520 h1        1 MOL      0.033959
     60 N6          5.8720   -2.9830   -1.8080 n         1 MOL     -0.442502
     61 C19         6.3050   -1.8940   -2.6700 c3        1 MOL      0.066064
     62 C20         7.0680   -0.8020   -1.9090 c         1 MOL      0.486673
     63 O10         7.7920   -0.9680   -0.9430 o         1 MOL     -0.439272
     64 C21         7.0840   -2.3990   -3.8630 c3        1 MOL     -0.253001
     65 C22         8.3290   -3.2790   -3.5490 c         1 MOL      0.772204
     66 O11         9.2170   -3.3490   -4.4160 o         1 MOL     -0.691995
     67 O12         8.4460   -3.9340   -2.5360 o         1 MOL     -0.691995
     68 H28         6.4340   -3.8200   -1.8030 hn        1 MOL      0.321720
     69 H29         5.4490   -1.4360   -3.1560 h1        1 MOL      0.039716
     70 H30         7.3300   -1.6450   -4.6060 hc        1 MOL      0.041677
     71 H31         6.3820   -3.0340   -4.3980 hc        1 MOL      0.041677
     72 N7          6.9610    0.4370   -2.4680 n         1 MOL     -0.173648
     73 C23         7.8930    1.5390   -2.1210 c3        1 MOL     -0.406062
     74 C24         7.6060    2.0830   -0.7480 c         1 MOL      0.675827
     75 O13         8.4920    2.5600   -0.0710 o         1 MOL     -0.568854
     76 H32         6.2520    0.5690   -3.1750 hn        1 MOL      0.193759
     77 H33         7.5990    2.3570   -2.7760 h1        1 MOL      0.166919
     78 H34         8.9500    1.3070   -2.1540 h1        1 MOL      0.166919
     79 N8          6.3690    1.9710   -0.2970 n         1 MOL     -0.426444
     80 C25         5.8610    2.3330    1.0720 c3        1 MOL     -0.050125
     81 C26         4.7260    1.2650    1.2950 c         1 MOL      0.609974
     82 O14         3.9100    0.9560    0.4670 o         1 MOL     -0.484632
     83 C27         5.1950    3.6960    1.1150 c3        1 MOL      0.291454
     84 C28         6.1870    4.7710    0.8160 c3        1 MOL     -0.339484
     85 O15         4.5880    3.9270    2.3740 oh        1 MOL     -0.589048
     86 H35         5.7330    1.6020   -0.9940 hn        1 MOL      0.181697
     87 H36         6.6490    2.2540    1.8330 h1        1 MOL      0.144664
     88 H37         4.4500    3.6900    0.3160 h1        1 MOL      0.002445
     89 H38         4.1050    4.7320    2.2090 ho        1 MOL      0.376656
     90 H39         6.9990    4.7380    1.5390 hc        1 MOL      0.090047
     91 H40         6.6450    4.5990   -0.1580 hc        1 MOL      0.090047
     92 H41         5.7530    5.7770    0.8240 hc        1 MOL      0.090047
     93 N9          4.7070    0.5990    2.4790 n         1 MOL     -0.488742
     94 C29         4.0090   -0.6730    2.8520 c3        1 MOL     -0.192281
     95 C30         2.6630   -0.4340    3.5580 c         1 MOL      0.329815
     96 O16         2.1000   -1.2760    4.2100 o         1 MOL     -0.476514
     97 C31         5.0550   -1.5970    3.5750 c3        1 MOL     -0.044070
     98 C32         5.6620   -1.1020    4.8700 c3        1 MOL      0.134223
     99 C33         6.2120   -1.9500    2.6360 c3        1 MOL     -0.204001
    100 C34         4.6750   -0.7820    6.0610 c3        1 MOL     -0.238564
    101 H42         5.3140    0.8060    3.2620 hn        1 MOL      0.305077
    102 H43         3.8440   -1.1540    1.8910 h1        1 MOL      0.226948
    103 H44         4.5340   -2.5400    3.7310 hc        1 MOL      0.077991
    104 H45         6.3190   -0.2320    4.7680 hc        1 MOL     -0.001802
    105 H46         6.3390   -1.8930    5.1980 hc        1 MOL     -0.001802
    106 H47         6.8930   -1.1460    2.3500 hc        1 MOL      0.066098
    107 H48         6.8210   -2.7360    3.0920 hc        1 MOL      0.066098
    108 H49         5.9310   -2.3720    1.6650 hc        1 MOL      0.066098
    109 H50         3.8410   -1.4420    6.2810 hc        1 MOL      0.061709
    110 H51         5.2930   -0.7620    6.9560 hc        1 MOL      0.061709
    111 H52         4.1750    0.1710    5.8630 hc        1 MOL      0.061709
    112 N10         2.1810    0.8330    3.4840 n         1 MOL      0.078614
    113 C35         1.1460    1.3980    4.3920 c3        1 MOL     -0.264141
    114 C36        -0.1900    0.6470    4.3030 c         1 MOL      0.479008
    115 O17        -0.9640    0.6860    5.2440 o         1 MOL     -0.558021
    116 C37         0.8530    2.9200    4.0890 c3        1 MOL      0.235420
    117 C38         0.3530    3.5000    2.7260 c3        1 MOL     -0.421491
    118 O18         2.1430    3.5150    4.1240 oh        1 MOL     -0.623332
    119 H53         2.5010    1.4600    2.7660 hn        1 MOL      0.106437
    120 H54         1.5610    1.2800    5.3910 h1        1 MOL      0.177364
    121 H55         0.3180    3.3840    4.9240 h1        1 MOL      0.084805
    122 H56         1.9820    4.4170    3.8330 ho        1 MOL      0.384643
    123 H57         0.8840    3.0710    1.8830 hc        1 MOL      0.123915
    124 H58        -0.7160    3.3460    2.5780 hc        1 MOL      0.123915
    125 H59         0.4170    4.5920    2.8000 hc        1 MOL      0.123915
    126 N11        -0.5260   -0.0120    3.1870 n         1 MOL     -0.196530
    127 C39        -1.8400   -0.5080    2.7570 c3        1 MOL     -0.099015
    128 C40        -2.9780    0.5300    2.6990 c         1 MOL      0.244690
    129 O19        -2.8830    1.7100    3.0820 o         1 MOL     -0.518571
    130 C41        -2.2290   -1.6890    3.6160 c3        1 MOL      0.604749
    131 C42        -1.2140   -2.7930    3.7990 c3        1 MOL     -0.381641
    132 O20        -3.2730   -2.4760    3.1490 oh        1 MOL     -0.738839
    133 H60         0.2550   -0.3110    2.6290 hn        1 MOL      0.169319
    134 H61        -1.7390   -0.7480    1.6880 h1        1 MOL      0.162042
    135 H62        -2.6030   -1.4580    4.6180 h1        1 MOL     -0.036967
    136 H63        -3.4020   -3.1620    3.8100 ho        1 MOL      0.422969
    137 H64        -0.7870   -2.8990    2.7950 hc        1 MOL      0.059496
    138 H65        -0.4650   -2.4170    4.4960 hc        1 MOL      0.059496
    139 H66        -1.6360   -3.7390    4.1420 hc        1 MOL      0.059496
    140 N12        -4.0870    0.1050    2.1380 n         1 MOL      0.007676
    141 C43        -5.3220    0.8770    1.8260 c3        1 MOL      0.004743
    142 C44        -5.5200    1.3330    0.4440 c         1 MOL      0.500046
    143 O21        -6.4080    2.2050    0.1940 o         1 MOL     -0.583027
    144 C45        -6.4610   -0.0490    2.3400 c3        1 MOL     -0.053658
    145 C46        -6.3920   -0.2670    3.8560 c3        1 MOL      0.044990
    146 C47        -6.6510    0.9390    4.7200 c3        1 MOL     -0.143047
    147 C48        -8.0920    1.5270    4.6640 c3        1 MOL      0.176001
    148 N13        -8.1890    2.7610    5.5270 n4        1 MOL     -0.400780
    149 H67        -4.0400   -0.8750    1.8870 hn        1 MOL      0.177727
    150 H68        -5.3070    1.7790    2.4400 h1        1 MOL      0.053147
    151 H69        -6.4660   -1.0460    1.9000 hc        1 MOL      0.039276
    152 H70        -7.3710    0.5290    2.1970 hc        1 MOL      0.039276
    153 H71        -5.5570   -0.8640    4.2380 hc        1 MOL      0.014383
    154 H72        -7.2160   -0.9560    4.0570 hc        1 MOL      0.014383
    155 H73        -5.9850    1.7520    4.4480 hc        1 MOL      0.047271
    156 H74        -6.5870    0.6530    5.7750 hc        1 MOL      0.047271
    157 H75        -8.8180    0.7750    4.9520 hx        1 MOL      0.048712
    158 H76        -8.3170    1.6990    3.6150 hx        1 MOL      0.048712
    159 H77        -7.6580    3.5060    5.0920 hn        1 MOL      0.310312
    160 H78        -9.1190    3.1480    5.4530 hn        1 MOL      0.310312
    161 H79        -7.9100    2.6700    6.4910 hn        1 MOL      0.310312
    162 N14        -4.7030    0.7840   -0.5090 n         1 MOL     -0.200779
    163 C49        -4.6040    1.2560   -1.8780 c3        1 MOL     -0.291551
    164 C50        -5.8920    1.0000   -2.7610 c         1 MOL      0.516509
    165 O22        -6.5460   -0.0070   -2.6130 o         1 MOL     -0.478482
    166 C51        -3.3290    0.7310   -2.5940 c3        1 MOL      0.431519
    167 C52        -3.0840    1.2650   -4.0040 c3        1 MOL     -0.397893
    168 C53        -3.0240    2.7630   -4.1290 c         1 MOL      0.571983
    169 O23        -3.8940    3.3180   -4.8770 o         1 MOL     -0.672154
    170 O24        -2.3490    3.4750   -3.3640 o         1 MOL     -0.672154
    171 H80        -3.9960    0.1500   -0.1660 hn        1 MOL      0.089468
    172 H81        -4.4830    2.3300   -1.7750 h1        1 MOL      0.125836
    173 H82        -3.4470   -0.3470   -2.7270 hc        1 MOL     -0.008504
    174 H83        -2.4690    0.9600   -1.9570 hc        1 MOL     -0.008504
    175 H84        -3.9020    0.8930   -4.6100 hc        1 MOL      0.098281
    176 H85        -2.1140    0.8560   -4.3150 hc        1 MOL      0.098281
    177 N15        -6.2280    2.0040   -3.5850 n         1 MOL     -0.284525
    178 C54        -7.4520    2.0360   -4.4140 c3        1 MOL     -0.064583
    179 H86        -8.1050    1.2100   -4.1300 h1        1 MOL      0.054151
    180 H87        -7.9730    2.9800   -4.2590 h1        1 MOL      0.054151
    181 H88        -7.1820    1.9380   -5.4660 h1        1 MOL      0.054151
    182 H89        -5.7500    2.8960   -3.5760 hn        1 MOL      0.267498
    183 Ca1        -0.1420    4.5350   -2.5430 Ca        1 MOL      1.716451
    184 O25         0.9380    5.3930   -0.3340 oh        1 MOL     -0.818556
    185 H90         0.3440    6.1260   -0.1380 ho        1 MOL      0.409913
    186 H91         1.3030    5.1420    0.5200 ho        1 MOL      0.409913
    187 O26        -1.1880    5.9540   -4.4650 oh        1 MOL     -0.818556
    188 H92        -0.9910    6.8570   -4.6890 ho        1 MOL      0.409913
    189 H93        -1.7390    5.6460   -5.1850 ho        1 MOL      0.409913
    190 O27        -2.0620    5.8540   -1.0420 oh        1 MOL     -0.818556
    191 H94        -2.4240    5.4130   -0.2730 ho        1 MOL      0.409913
    192 H95        -2.5650    6.6700   -1.0990 ho        1 MOL      0.409913
    193 O28         0.4580    2.7220   -4.4310 oh        1 MOL     -0.818556
    194 H96         0.8020    1.8300   -4.4850 ho        1 MOL      0.409913
    195 H97         0.8010    3.1690   -5.2090 ho        1 MOL      0.409913
    196 O29         0.2040    7.4380   -2.2570 oh        1 MOL     -0.818556
    197 H98         1.0990    7.6040   -2.5340 ho        1 MOL      0.409913
    198 H99        -0.3020    8.1520   -2.6340 ho        1 MOL      0.409913
@<TRIPOS>BOND
     1    1    2 1   
     2    1    4 1   
     3    1    5 1   
     4    1    6 1   
     5    2    3 2   
     6    2    7 1   
     7    7    8 1   
     8    7   15 1   
     9    8    9 1   
    10    8   11 1   
    11    8   16 1   
    12    9   10 2   
    13    9   19 1   
    14   11   12 1   
    15   11   17 1   
    16   11   18 1   
    17   12   13 1   
    18   12   14 1   
    19   19   20 1   
    20   19   28 1   
    21   20   21 1   
    22   20   23 1   
    23   20   29 1   
    24   21   22 2   
    25   21   41 1   
    26   23   24 1   
    27   23   30 1   
    28   23   31 1   
    29   24   25 1   
    30   24   32 1   
    31   24   33 1   
    32   25   26 1   
    33   25   34 1   
    34   25   35 1   
    35   26   27 1   
    36   26   36 1   
    37   26   37 1   
    38   27   38 1   
    39   27   39 1   
    40   27   40 1   
    41   41   42 1   
    42   41   49 1   
    43   42   43 1   
    44   42   45 1   
    45   42   50 1   
    46   43   44 2   
    47   43   53 1   
    48   45   46 1   
    49   45   51 1   
    50   45   52 1   
    51   46   47 1   
    52   46   48 1   
    53   53   54 1   
    54   53   57 1   
    55   54   55 1   
    56   54   58 1   
    57   54   59 1   
    58   55   56 2   
    59   55   60 1   
    60   60   61 1   
    61   60   68 1   
    62   61   62 1   
    63   61   64 1   
    64   61   69 1   
    65   62   63 2   
    66   62   72 1   
    67   64   65 1   
    68   64   70 1   
    69   64   71 1   
    70   65   66 1   
    71   65   67 1   
    72   72   73 1   
    73   72   76 1   
    74   73   74 1   
    75   73   77 1   
    76   73   78 1   
    77   74   75 2   
    78   74   79 1   
    79   79   80 1   
    80   79   86 1   
    81   80   81 1   
    82   80   83 1   
    83   80   87 1   
    84   81   82 2   
    85   81   93 1   
    86   83   84 1   
    87   83   85 1   
    88   83   88 1   
    89   84   90 1   
    90   84   91 1   
    91   84   92 1   
    92   85   89 1   
    93   93   94 1   
    94   93  101 1   
    95   94   95 1   
    96   94   97 1   
    97   94  102 1   
    98   95   96 2   
    99   95  112 1   
   100   97   98 1   
   101   97   99 1   
   102   97  103 1   
   103   98  100 1   
   104   98  104 1   
   105   98  105 1   
   106   99  106 1   
   107   99  107 1   
   108   99  108 1   
   109  100  109 1   
   110  100  110 1   
   111  100  111 1   
   112  112  113 1   
   113  112  119 1   
   114  113  114 1   
   115  113  116 1   
   116  113  120 1   
   117  114  115 2   
   118  114  126 1   
   119  116  117 1   
   120  116  118 1   
   121  116  121 1   
   122  117  123 1   
   123  117  124 1   
   124  117  125 1   
   125  118  122 1   
   126  126  127 1   
   127  126  133 1   
   128  127  128 1   
   129  127  130 1   
   130  127  134 1   
   131  128  129 2   
   132  128  140 1   
   133  130  131 1   
   134  130  132 1   
   135  130  135 1   
   136  131  137 1   
   137  131  138 1   
   138  131  139 1   
   139  132  136 1   
   140  140  141 1   
   141  140  149 1   
   142  141  142 1   
   143  141  144 1   
   144  141  150 1   
   145  142  143 2   
   146  142  162 1   
   147  144  145 1   
   148  144  151 1   
   149  144  152 1   
   150  145  146 1   
   151  145  153 1   
   152  145  154 1   
   153  146  147 1   
   154  146  155 1   
   155  146  156 1   
   156  147  148 1   
   157  147  157 1   
   158  147  158 1   
   159  148  159 1   
   160  148  160 1   
   161  148  161 1   
   162  162  163 1   
   163  162  171 1   
   164  163  164 1   
   165  163  166 1   
   166  163  172 1   
   167  164  165 2   
   168  164  177 1   
   169  166  167 1   
   170  166  173 1   
   171  166  174 1   
   172  167  168 1   
   173  167  175 1   
   174  167  176 1   
   175  168  169 1   
   176  168  170 1   
   177  177  178 1   
   178  177  182 1   
   179  178  179 1   
   180  178  180 1   
   181  178  181 1   
   182  184  185 1   
   183  184  186 1   
   184  187  188 1   
   185  187  189 1   
   186  190  191 1   
   187  190  192 1   
   188  193  194 1   
   189  193  195 1   
   190  196  197 1   
   191  196  198 1   
@<TRIPOS>SUBSTRUCTURE
     1 MOL         1 TEMP              0 ****  ****    0 ROOT
