@<TRIPOS>MOLECULE
MOL
  192   187     1     0     0
SMALL
resp


@<TRIPOS>ATOM
      1 C1         -3.4410   -1.4560    2.5240 c3        1 MOL     -0.284015
      2 C2         -2.6210   -2.2740    1.3870 c         1 MOL      0.658770
      3 O1         -1.5320   -1.8760    1.0910 o         1 MOL     -0.492982
      4 H1         -3.0620   -0.4360    2.5820 hc        1 MOL      0.041559
      5 H2         -4.4990   -1.4340    2.2640 hc        1 MOL      0.041559
      6 H3         -3.3130   -1.9460    3.4890 hc        1 MOL      0.041559
      7 N1         -3.1280   -3.4900    1.0650 n         1 MOL     -0.437067
      8 C3         -2.5800   -4.4950    0.2320 c3        1 MOL      0.122039
      9 C4         -1.0580   -4.6900    0.2840 c         1 MOL      0.804156
     10 O2         -0.4290   -4.6200   -0.7610 o         1 MOL     -0.562751
     11 C5         -3.1730   -4.3020   -1.1940 c3        1 MOL     -0.772631
     12 C6         -4.7190   -4.2600   -1.3050 c         1 MOL      1.217524
     13 O3         -5.4310   -4.9680   -0.5570 o         1 MOL     -0.880276
     14 O4         -5.2670   -3.5520   -2.1240 o         1 MOL     -0.880276
     15 H4         -4.0540   -3.5980    1.4420 hn        1 MOL      0.224502
     16 H5         -2.9300   -5.4750    0.5780 h1        1 MOL      0.046884
     17 H6         -2.8150   -5.1180   -1.8300 hc        1 MOL      0.188810
     18 H7         -2.8170   -3.3290   -1.5170 hc        1 MOL      0.188810
     19 N2         -0.5180   -4.8980    1.5000 n         1 MOL     -0.624276
     20 C7          0.8600   -5.0800    1.8750 c3        1 MOL     -0.244766
     21 C8          1.5950   -6.3650    1.3950 c         1 MOL      0.641904
     22 O5          0.9940   -7.4300    1.2630 o         1 MOL     -0.586671
     23 C9          1.1580   -4.7540    3.3810 c3        1 MOL      0.243877
     24 C10         0.7260   -5.9040    4.3710 c3        1 MOL      0.246773
     25 C11         0.6400   -3.3450    3.8470 c3        1 MOL     -0.099576
     26 C12         1.7650   -6.0570    5.5050 c3        1 MOL     -0.227230
     27 H8         -1.1420   -4.9970    2.2910 hn        1 MOL      0.269730
     28 H9          1.3840   -4.3440    1.2600 h1        1 MOL      0.174620
     29 H10         2.2420   -4.6780    3.4600 hc        1 MOL      0.012337
     30 H11         0.7670   -6.7980    3.7620 hc        1 MOL     -0.078760
     31 H12        -0.2490   -5.7440    4.8380 hc        1 MOL     -0.078760
     32 H13         1.0770   -3.0670    4.8030 hc        1 MOL      0.013869
     33 H14         1.0720   -2.6020    3.1840 hc        1 MOL      0.013869
     34 H15        -0.4490   -3.2790    3.8930 hc        1 MOL      0.013869
     35 H16         1.9080   -5.0430    5.8890 hc        1 MOL      0.028247
     36 H17         1.3670   -6.7370    6.2560 hc        1 MOL      0.028247
     37 H18         2.6540   -6.4070    4.9730 hc        1 MOL      0.028247
     38 N3          2.8570   -6.3040    0.9410 n         1 MOL     -0.571835
     39 C13         3.8150   -5.1980    1.0120 c3        1 MOL      0.333451
     40 C14         3.5340   -4.0850   -0.0530 c         1 MOL      0.314095
     41 O6          3.7020   -2.9020    0.3460 o         1 MOL     -0.562670
     42 C15         5.2120   -5.7630    0.7600 c3        1 MOL     -0.400138
     43 C16         5.4020   -6.7700   -0.3760 c         1 MOL      0.758531
     44 O7          4.4640   -7.2400   -1.0430 o         1 MOL     -0.711211
     45 O8          6.5700   -7.1750   -0.6480 o         1 MOL     -0.711211
     46 H19         3.2030   -7.0910    0.4160 hn        1 MOL      0.298021
     47 H20         3.8060   -4.6190    1.9350 h1        1 MOL     -0.008225
     48 H21         5.5160   -6.3270    1.6370 hc        1 MOL      0.080575
     49 H22         5.9300   -4.9450    0.7130 hc        1 MOL      0.080575
     50 N4          3.0500   -4.3140   -1.2460 n         1 MOL     -0.169819
     51 C17         3.1300   -3.3800   -2.4130 c3        1 MOL     -0.236946
     52 C18         4.5850   -2.9730   -2.7650 c         1 MOL      0.596475
     53 O9          5.4970   -3.7780   -2.5340 o         1 MOL     -0.501712
     54 H23         2.9480   -5.2990   -1.4660 hn        1 MOL      0.251546
     55 H24         2.4170   -2.5630   -2.3520 h1        1 MOL      0.121336
     56 H25         2.8720   -3.8980   -3.3410 h1        1 MOL      0.121336
     57 N5          4.7660   -1.7140   -3.2840 n         1 MOL     -0.492491
     58 C19         6.0780   -1.1980   -3.5710 c3        1 MOL      0.028939
     59 C20         7.0040   -1.0120   -2.3680 c         1 MOL      0.381720
     60 O10         8.1970   -0.7280   -2.5130 o         1 MOL     -0.543492
     61 C21         5.8370    0.0830   -4.4720 c3        1 MOL     -0.210036
     62 C22         4.8820    1.0750   -3.7540 c         1 MOL      0.734391
     63 O11         3.7000    1.1820   -4.1580 o         1 MOL     -0.686159
     64 O12         5.2890    1.7620   -2.7830 o         1 MOL     -0.686159
     65 H26         3.9670   -1.1090   -3.3830 hn        1 MOL      0.267747
     66 H27         6.6510   -1.9110   -4.1610 h1        1 MOL      0.095746
     67 H28         5.4540   -0.1840   -5.4570 hc        1 MOL      0.036273
     68 H29         6.7420    0.5670   -4.8300 hc        1 MOL      0.036273
     69 N6          6.4640   -0.9900   -1.1230 n         1 MOL     -0.081381
     70 C23         7.1210   -0.7050    0.1970 c3        1 MOL     -0.293392
     71 C24         7.3160    0.7440    0.5370 c         1 MOL      0.605519
     72 O13         8.1090    1.0740    1.4220 o         1 MOL     -0.585540
     73 H30         5.4500   -1.0810   -1.1290 hn        1 MOL      0.231239
     74 H31         8.1270   -1.0980    0.0680 h1        1 MOL      0.135486
     75 H32         6.5930   -1.1860    1.0200 h1        1 MOL      0.135486
     76 N7          6.8400    1.6660   -0.3720 n         1 MOL     -0.158484
     77 C25         6.9690    3.1170   -0.3340 c3        1 MOL     -0.148214
     78 C26         6.4010    3.7520    0.9690 c         1 MOL      0.476498
     79 O14         6.5460    4.9970    1.2430 o         1 MOL     -0.533814
     80 C27         8.4220    3.6370   -0.6610 c3        1 MOL      0.078949
     81 C28         8.7200    3.1900   -2.1720 c3        1 MOL     -0.184943
     82 C29        10.0330    3.8280   -2.6690 c         1 MOL      0.639805
     83 N8         10.7180    3.2520   -3.6890 n         1 MOL     -0.819165
     84 O15        10.5290    4.7790   -2.0550 o         1 MOL     -0.562151
     85 H33         6.3930    1.3190   -1.2140 hn        1 MOL      0.092108
     86 H34         6.3760    3.6340   -1.0850 h1        1 MOL      0.163002
     87 H35         9.1600    3.3110    0.0660 hc        1 MOL      0.018793
     88 H36         8.5240    4.7270   -0.6080 hc        1 MOL      0.018793
     89 H37         7.9190    3.4800   -2.8530 hc        1 MOL      0.077346
     90 H38         8.8470    2.1000   -2.1940 hc        1 MOL      0.077346
     91 H39        10.5050    2.3580   -4.1130 hn        1 MOL      0.348219
     92 H40        11.6040    3.6110   -3.9980 hn        1 MOL      0.348219
     93 N9          5.5080    3.0300    1.7030 n         1 MOL     -0.393014
     94 C30         4.7350    3.5800    2.9050 c3        1 MOL     -0.014882
     95 C31         3.1880    3.4920    2.7840 c         1 MOL      0.586187
     96 O16         2.4900    4.0010    3.6870 o         1 MOL     -0.585399
     97 C32         5.2520    3.0640    4.2900 c3        1 MOL      0.286413
     98 C33         4.8620    1.6380    4.5250 c3        1 MOL     -0.262198
     99 C34         6.7680    3.1900    4.4350 c3        1 MOL     -0.262198
    100 H41         5.3300    2.0600    1.4500 hn        1 MOL      0.252716
    101 H42         4.9460    4.6420    2.9910 h1        1 MOL      0.079025
    102 H43         4.7360    3.6250    5.0720 hc        1 MOL     -0.044188
    103 H44         3.7910    1.6210    4.3410 hc        1 MOL      0.054908
    104 H45         5.4500    0.9710    3.8870 hc        1 MOL      0.054908
    105 H46         5.0980    1.2850    5.5360 hc        1 MOL      0.054908
    106 H47         7.0470    2.7930    5.4040 hc        1 MOL      0.054908
    107 H48         7.2670    2.7390    3.5740 hc        1 MOL      0.054908
    108 H49         7.0330    4.2430    4.4820 hc        1 MOL      0.054908
    109 N10         2.5700    2.8540    1.7170 n         1 MOL     -0.649204
    110 C35         1.0870    2.7310    1.6000 c3        1 MOL      0.581322
    111 C36         0.6460    3.4120    0.2980 c         1 MOL      0.346330
    112 O17         1.3210    3.7750   -0.6510 o         1 MOL     -0.491413
    113 C37         0.7080    1.2530    1.7300 c3        1 MOL     -0.415371
    114 C38         1.1360    0.7040    3.0760 c         1 MOL      0.698342
    115 N11         0.3510    0.9810    4.0640 n         1 MOL     -0.772241
    116 O18         2.1310   -0.0170    3.2260 o         1 MOL     -0.585336
    117 H50         3.1400    2.4710    0.9840 hn        1 MOL      0.299077
    118 H51         0.5460    3.3570    2.3100 h1        1 MOL     -0.056350
    119 H52         1.1580    0.6740    0.9210 hc        1 MOL      0.147402
    120 H53        -0.3840    1.1850    1.7820 hc        1 MOL      0.147402
    121 H54        -0.2650    1.7540    3.8820 hn        1 MOL      0.360398
    122 H55         0.5610    0.5560    4.9570 hn        1 MOL      0.360398
    123 N12        -0.6810    3.4350    0.2190 n         1 MOL     -0.220824
    124 C39        -1.5360    4.1810   -0.7300 c3        1 MOL      0.020486
    125 C40        -2.8850    4.5730   -0.1860 c         1 MOL      0.519057
    126 O19        -3.2150    4.1510    0.9870 o         1 MOL     -0.572645
    127 C41        -1.6200    3.4970   -2.1410 c3        1 MOL     -0.456462
    128 C42        -2.5830    2.3000   -2.2310 ca        1 MOL      0.072671
    129 C43        -2.2480    1.0660   -1.6440 ca        1 MOL     -0.130112
    130 C44        -3.7480    2.4890   -2.9720 ca        1 MOL     -0.130112
    131 C45        -3.1610   -0.0260   -1.7490 ca        1 MOL     -0.186885
    132 C46        -4.6250    1.4130   -3.1470 ca        1 MOL     -0.186885
    133 C47        -4.3200    0.1330   -2.5610 ca        1 MOL      0.149794
    134 O20        -5.0100   -0.9430   -2.9220 oh        1 MOL     -0.462434
    135 H56        -1.1260    3.2070    1.0930 hn        1 MOL      0.159803
    136 H57        -1.0130    5.1440   -0.7990 h1        1 MOL      0.086754
    137 H58        -0.6530    3.1300   -2.5100 hc        1 MOL      0.178277
    138 H59        -1.9140    4.2600   -2.8670 hc        1 MOL      0.178277
    139 H60        -1.3500    0.8820   -1.0860 ha        1 MOL      0.119349
    140 H61        -4.0390    3.3940   -3.4830 ha        1 MOL      0.119349
    141 H62        -2.9040   -1.0100   -1.3820 ha        1 MOL      0.112783
    142 H63        -5.4730    1.4720   -3.8110 ha        1 MOL      0.112783
    143 H64        -4.6190   -1.7290   -2.5300 ho        1 MOL      0.451553
    144 N13        -3.7410    5.2370   -1.0050 n         1 MOL     -0.376483
    145 C48        -5.1060    5.5620   -0.5070 c3        1 MOL      0.141408
    146 C49        -6.2360    4.8820   -1.3840 c         1 MOL      0.431730
    147 O21        -6.7310    5.5150   -2.3390 o         1 MOL     -0.587124
    148 C50        -5.3340    7.1200   -0.2860 c3        1 MOL     -0.174592
    149 C51        -4.3270    7.7490    0.7230 c3        1 MOL     -0.248939
    150 C52        -4.2700    9.2870    0.5070 c         1 MOL      0.730793
    151 O22        -5.0470    9.9230    1.1170 o         1 MOL     -0.711472
    152 O23        -3.4970    9.7030   -0.4040 o         1 MOL     -0.711472
    153 H65        -3.2860    5.6120   -1.8220 hn        1 MOL      0.301828
    154 H66        -5.3110    5.0720    0.4430 h1        1 MOL      0.029386
    155 H67        -6.3470    7.2920    0.0670 hc        1 MOL      0.105944
    156 H68        -5.1520    7.6150   -1.2370 hc        1 MOL      0.105944
    157 H69        -3.3340    7.2970    0.6990 hc        1 MOL      0.042061
    158 H70        -4.7260    7.5940    1.7220 hc        1 MOL      0.042061
    159 N14        -6.6100    3.6440   -1.2130 n         1 MOL     -0.319621
    160 C53        -6.1800    2.7370   -0.1390 c3        1 MOL     -0.049031
    161 C54        -6.6490    3.2760    1.2110 c         1 MOL      0.459947
    162 O24        -7.7130    3.9160    1.1450 o         1 MOL     -0.527541
    163 C55        -6.7610    1.3240   -0.3440 c3        1 MOL     -0.119521
    164 C56        -6.0710    0.3170    0.6240 c3        1 MOL      0.085230
    165 C57        -6.6740   -1.1410    0.4080 c         1 MOL      0.572779
    166 O25        -5.9330   -2.1940    0.4160 o         1 MOL     -0.713631
    167 O26        -7.9340   -1.2900    0.2150 o         1 MOL     -0.713631
    168 H71        -7.2560    3.3340   -1.9220 hn        1 MOL      0.270507
    169 H72        -5.0880    2.6710   -0.1550 h1        1 MOL      0.063474
    170 H73        -6.5230    0.9540   -1.3400 hc        1 MOL      0.064663
    171 H74        -7.8420    1.3810   -0.3290 hc        1 MOL      0.064663
    172 H75        -6.1790    0.5820    1.6740 hc        1 MOL     -0.027790
    173 H76        -5.0020    0.2810    0.4000 hc        1 MOL     -0.027790
    174 N15        -5.9440    3.0370    2.3570 n         1 MOL     -0.203232
    175 C58        -6.2790    3.5360    3.7040 c3        1 MOL     -0.121132
    176 H77        -7.1720    4.1600    3.6490 h1        1 MOL      0.072293
    177 H78        -6.4670    2.6930    4.3690 h1        1 MOL      0.072293
    178 H79        -5.4480    4.1250    4.0910 h1        1 MOL      0.072293
    179 H80        -5.0300    2.6180    2.1970 hn        1 MOL      0.246744
    180 Ca1        -7.6020   -3.6360   -0.7620 Ca        1 MOL      1.690054
    181 O27        -8.6930   -6.1810   -0.3420 oh        1 MOL     -0.796396
    182 H81        -9.3770   -6.7200    0.0650 ho        1 MOL      0.388610
    183 H82        -8.0710   -6.8080   -0.7020 ho        1 MOL      0.388610
    184 O28        -8.8490   -2.2580   -2.6470 oh        1 MOL     -0.796396
    185 H83        -9.1870   -1.4560   -2.2600 ho        1 MOL      0.388610
    186 H84        -9.0780   -2.1990   -3.5720 ho        1 MOL      0.388610
    187 O29        -7.7860   -5.3420   -2.9990 oh        1 MOL     -0.796396
    188 H85        -8.6450   -5.3240   -3.4180 ho        1 MOL      0.388610
    189 H86        -7.5540   -6.2640   -2.9410 ho        1 MOL      0.388610
    190 O30       -10.0830   -3.5560   -0.0620 oh        1 MOL     -0.796396
    191 H87       -10.6720   -3.3680    0.6690 ho        1 MOL      0.388610
    192 H88       -10.6480   -3.9170   -0.7450 ho        1 MOL      0.388610
@<TRIPOS>BOND
     1    1    2 1   
     2    1    4 1   
     3    1    5 1   
     4    1    6 1   
     5    2    3 2   
     6    2    7 1   
     7    7    8 1   
     8    7   15 1   
     9    8    9 1   
    10    8   11 1   
    11    8   16 1   
    12    9   10 2   
    13    9   19 1   
    14   11   12 1   
    15   11   17 1   
    16   11   18 1   
    17   12   13 1   
    18   12   14 1   
    19   19   20 1   
    20   19   27 1   
    21   20   21 1   
    22   20   23 1   
    23   20   28 1   
    24   21   22 2   
    25   21   38 1   
    26   23   24 1   
    27   23   25 1   
    28   23   29 1   
    29   24   26 1   
    30   24   30 1   
    31   24   31 1   
    32   25   32 1   
    33   25   33 1   
    34   25   34 1   
    35   26   35 1   
    36   26   36 1   
    37   26   37 1   
    38   38   39 1   
    39   38   46 1   
    40   39   40 1   
    41   39   42 1   
    42   39   47 1   
    43   40   41 2   
    44   40   50 1   
    45   42   43 1   
    46   42   48 1   
    47   42   49 1   
    48   43   44 1   
    49   43   45 1   
    50   50   51 1   
    51   50   54 1   
    52   51   52 1   
    53   51   55 1   
    54   51   56 1   
    55   52   53 2   
    56   52   57 1   
    57   57   58 1   
    58   57   65 1   
    59   58   59 1   
    60   58   61 1   
    61   58   66 1   
    62   59   60 2   
    63   59   69 1   
    64   61   62 1   
    65   61   67 1   
    66   61   68 1   
    67   62   63 1   
    68   62   64 1   
    69   69   70 1   
    70   69   73 1   
    71   70   71 1   
    72   70   74 1   
    73   70   75 1   
    74   71   72 2   
    75   71   76 1   
    76   76   77 1   
    77   76   85 1   
    78   77   78 1   
    79   77   80 1   
    80   77   86 1   
    81   78   79 2   
    82   78   93 1   
    83   80   81 1   
    84   80   87 1   
    85   80   88 1   
    86   81   82 1   
    87   81   89 1   
    88   81   90 1   
    89   82   83 1   
    90   82   84 2   
    91   83   91 1   
    92   83   92 1   
    93   93   94 1   
    94   93  100 1   
    95   94   95 1   
    96   94   97 1   
    97   94  101 1   
    98   95   96 2   
    99   95  109 1   
   100   97   98 1   
   101   97   99 1   
   102   97  102 1   
   103   98  103 1   
   104   98  104 1   
   105   98  105 1   
   106   99  106 1   
   107   99  107 1   
   108   99  108 1   
   109  109  110 1   
   110  109  117 1   
   111  110  111 1   
   112  110  113 1   
   113  110  118 1   
   114  111  112 2   
   115  111  123 1   
   116  113  114 1   
   117  113  119 1   
   118  113  120 1   
   119  114  115 1   
   120  114  116 2   
   121  115  121 1   
   122  115  122 1   
   123  123  124 1   
   124  123  135 1   
   125  124  125 1   
   126  124  127 1   
   127  124  136 1   
   128  125  126 2   
   129  125  144 1   
   130  127  128 1   
   131  127  137 1   
   132  127  138 1   
   133  128  129 ar  
   134  128  130 ar  
   135  129  131 ar  
   136  129  139 1   
   137  130  132 ar  
   138  130  140 1   
   139  131  133 ar  
   140  131  141 1   
   141  132  133 ar  
   142  132  142 1   
   143  133  134 1   
   144  134  143 1   
   145  144  145 1   
   146  144  153 1   
   147  145  146 1   
   148  145  148 1   
   149  145  154 1   
   150  146  147 2   
   151  146  159 1   
   152  148  149 1   
   153  148  155 1   
   154  148  156 1   
   155  149  150 1   
   156  149  157 1   
   157  149  158 1   
   158  150  151 1   
   159  150  152 1   
   160  159  160 1   
   161  159  168 1   
   162  160  161 1   
   163  160  163 1   
   164  160  169 1   
   165  161  162 2   
   166  161  174 1   
   167  163  164 1   
   168  163  170 1   
   169  163  171 1   
   170  164  165 1   
   171  164  172 1   
   172  164  173 1   
   173  165  166 1   
   174  165  167 1   
   175  174  175 1   
   176  174  179 1   
   177  175  176 1   
   178  175  177 1   
   179  175  178 1   
   180  181  182 1   
   181  181  183 1   
   182  184  185 1   
   183  184  186 1   
   184  187  188 1   
   185  187  189 1   
   186  190  191 1   
   187  190  192 1   
@<TRIPOS>SUBSTRUCTURE
     1 MOL         1 TEMP              0 ****  ****    0 ROOT
