@<TRIPOS>MOLECULE
MOL
  178   175     1     0     0
SMALL
resp


@<TRIPOS>ATOM
      1 C1          5.5300   -1.2340    2.9910 c3        1 MOL     -0.377127
      2 C2          6.8440   -0.6850    2.4330 c         1 MOL      0.642469
      3 O1          6.8720    0.4150    1.8830 o         1 MOL     -0.598449
      4 H1          5.6930   -1.6090    4.0020 hc        1 MOL      0.097528
      5 H2          4.7840   -0.4400    3.0150 hc        1 MOL      0.097528
      6 H3          5.1760   -2.0460    2.3560 hc        1 MOL      0.097528
      7 N1          7.8470   -1.5600    2.4240 n         1 MOL     -0.419706
      8 C3          9.2760   -1.0740    2.1900 c3        1 MOL     -0.065029
      9 C4          9.3390   -0.9250    0.6610 c         1 MOL      0.503502
     10 O2          9.2080   -1.8710   -0.1120 o         1 MOL     -0.501444
     11 C5         10.2080   -2.1100    2.8390 c3        1 MOL     -0.095534
     12 C6         11.6700   -1.7960    2.8770 c         1 MOL      0.685887
     13 O3         12.0100   -0.7580    3.4970 o         1 MOL     -0.728027
     14 O4         12.4990   -2.6290    2.3940 o         1 MOL     -0.728027
     15 H4          7.6120   -2.3930    2.9480 hn        1 MOL      0.280080
     16 H5          9.4950   -0.1140    2.6670 h1        1 MOL      0.071526
     17 H6         10.0500   -3.1370    2.5280 hc        1 MOL      0.017405
     18 H7          9.8650   -2.0940    3.8770 hc        1 MOL      0.017405
     19 N2          9.4570    0.3440    0.2250 n         1 MOL     -0.367813
     20 C7          9.4030    0.8320   -1.1350 c3        1 MOL      0.156839
     21 C8          8.0630    0.6980   -1.7750 c         1 MOL      0.363655
     22 O5          7.8950    0.6790   -3.0320 o         1 MOL     -0.537424
     23 C9          9.8380    2.3560   -1.1280 c3        1 MOL     -0.287031
     24 H8          9.7880    1.0130    0.8960 hn        1 MOL      0.262362
     25 H9         10.0830    0.2570   -1.7730 h1        1 MOL      0.079629
     26 H10         9.0270    3.0470   -0.8750 hc        1 MOL      0.077221
     27 H11        10.6010    2.5000   -0.3580 hc        1 MOL      0.077221
     28 H12        10.3080    2.6100   -2.0840 hc        1 MOL      0.077221
     29 N3          7.0140    0.4900   -0.9760 n         1 MOL     -0.418865
     30 C10         5.7060    0.0360   -1.2970 c3        1 MOL      0.234996
     31 C11         4.9650    0.8240   -2.2860 c         1 MOL      0.385552
     32 O6          4.1650    0.3140   -3.1010 o         1 MOL     -0.466487
     33 C12         5.8260   -1.4750   -1.5230 c3        1 MOL      0.053166
     34 C13         4.4470   -2.1820   -1.3910 c         1 MOL      0.721197
     35 O7          4.0660   -3.1840   -2.0100 o         1 MOL     -0.799268
     36 O8          3.5770   -1.6890   -0.6410 o         1 MOL     -0.799268
     37 H13         7.2350    0.4900    0.0100 hn        1 MOL      0.240650
     38 H14         5.0470    0.1770   -0.4390 h1        1 MOL      0.036348
     39 H15         6.3260   -2.0050   -0.7160 hc        1 MOL     -0.008375
     40 H16         6.1520   -1.8200   -2.5060 hc        1 MOL     -0.008375
     41 N4          5.1030    2.1770   -2.3710 n         1 MOL     -0.201416
     42 C14         4.7320    3.0280   -3.5110 c3        1 MOL     -0.164871
     43 C15         3.2650    3.3220   -3.7860 c         1 MOL      0.529388
     44 O9          3.0230    3.3320   -4.9750 o         1 MOL     -0.541057
     45 H17         5.4610    2.6340   -1.5420 hn        1 MOL      0.193171
     46 H18         5.3390    2.7550   -4.3730 h1        1 MOL      0.092360
     47 H19         5.1950    3.9430   -3.1430 h1        1 MOL      0.092360
     48 N5          2.3800    3.4070   -2.8070 n         1 MOL     -0.385681
     49 C16         1.0070    3.9310   -2.7750 c3        1 MOL      0.237624
     50 C17         0.8950    5.0680   -1.7260 c         1 MOL      0.300567
     51 O10         1.5980    4.9670   -0.7090 o         1 MOL     -0.479638
     52 C18         0.0150    2.7220   -2.6150 c3        1 MOL     -0.206633
     53 C19        -1.4460    3.1060   -2.6560 c         1 MOL      0.453368
     54 N6         -1.9670    3.3850   -1.5620 n         1 MOL     -0.471823
     55 O11        -2.0510    3.2590   -3.7250 o         1 MOL     -0.581640
     56 H20         2.7190    3.0740   -1.9120 hn        1 MOL      0.209503
     57 H21         0.8630    4.4480   -3.7280 h1        1 MOL     -0.002302
     58 H22         0.2830    2.1750   -1.7100 hc        1 MOL      0.122697
     59 H23         0.1480    2.0650   -3.4740 hc        1 MOL      0.122697
     60 H24        -1.5700    3.2040   -0.6550 hn        1 MOL      0.265259
     61 H25        -2.9610    3.5880   -1.4930 hn        1 MOL      0.265259
     62 N7         -0.0120    6.0200   -1.9200 n         1 MOL     -0.200745
     63 C20        -0.4860    6.9770   -0.9710 c3        1 MOL     -0.110784
     64 C21        -1.9830    6.8360   -0.5260 c         1 MOL      0.502114
     65 O12        -2.7440    6.4640   -1.4540 o         1 MOL     -0.493954
     66 H26        -0.5310    6.0310   -2.7960 hn        1 MOL      0.261991
     67 H27        -0.2300    7.9430   -1.4170 h1        1 MOL      0.063615
     68 H28         0.0190    6.8280   -0.0150 h1        1 MOL      0.063615
     69 N8         -2.3990    7.0850    0.7330 n         1 MOL     -0.285121
     70 C22        -3.7500    6.8970    1.2410 c3        1 MOL     -0.554861
     71 C23        -3.9250    5.4810    1.7440 c         1 MOL      0.624456
     72 O13        -4.9890    5.0860    2.0820 o         1 MOL     -0.551598
     73 C24        -4.1240    7.8710    2.3530 c3        1 MOL      0.510736
     74 C25        -3.3160    7.6200    3.6370 c3        1 MOL     -0.344815
     75 O14        -3.8100    9.2400    1.9550 oh        1 MOL     -0.634926
     76 H29        -1.7000    7.4600    1.3600 hn        1 MOL      0.240816
     77 H30        -4.4180    7.1610    0.4250 h1        1 MOL      0.228414
     78 H31        -5.1790    7.8740    2.6250 h1        1 MOL      0.055371
     79 H32        -3.0070    9.2690    1.4410 ho        1 MOL      0.378570
     80 H33        -2.2450    7.6690    3.4370 hc        1 MOL      0.086090
     81 H34        -3.5190    8.3520    4.4060 hc        1 MOL      0.086090
     82 H35        -3.3570    6.6020    4.0130 hc        1 MOL      0.086090
     83 N9         -2.8700    4.6980    1.8760 n         1 MOL     -0.182449
     84 C26        -2.9210    3.3340    2.2940 c3        1 MOL     -0.036893
     85 C27        -2.0310    2.3850    1.4220 c         1 MOL      0.301994
     86 O15        -0.9620    2.7890    0.9200 o         1 MOL     -0.406259
     87 C28        -2.4760    3.2680    3.7960 c3        1 MOL      0.187741
     88 C29        -3.6970    2.8900    4.6770 c3        1 MOL      0.023401
     89 C30        -1.2010    2.4210    4.0230 c3        1 MOL     -0.435812
     90 C31        -3.4730    3.2360    6.1970 c3        1 MOL     -0.110716
     91 H36        -1.9590    5.0160    1.5540 hn        1 MOL      0.188376
     92 H37        -3.9550    3.0110    2.2060 h1        1 MOL      0.039092
     93 H38        -2.2360    4.2850    4.1040 hc        1 MOL     -0.014922
     94 H39        -3.8430    1.8100    4.6120 hc        1 MOL     -0.001482
     95 H40        -4.5690    3.4770    4.3820 hc        1 MOL     -0.001482
     96 H41        -0.4350    2.7910    3.3390 hc        1 MOL      0.126100
     97 H42        -1.0240    2.2560    5.0920 hc        1 MOL      0.126100
     98 H43        -1.3340    1.4250    3.6080 hc        1 MOL      0.126100
     99 H44        -3.0130    2.3620    6.6580 hc        1 MOL      0.024755
    100 H45        -2.7900    4.0790    6.2750 hc        1 MOL      0.024755
    101 H46        -4.3940    3.4220    6.7620 hc        1 MOL      0.024755
    102 N10        -2.5020    1.0990    1.1620 n         1 MOL     -0.428669
    103 C32        -1.8790    0.0930    0.3200 c3        1 MOL      0.225489
    104 C33        -2.9840   -0.7150   -0.3650 c         1 MOL      0.503446
    105 O16        -2.9220   -1.9520   -0.3840 o         1 MOL     -0.465071
    106 C34        -0.9140   -0.6750    1.1950 c3        1 MOL      0.022405
    107 C35        -0.1000   -1.7200    0.4160 c         1 MOL      0.620187
    108 O17         0.3220   -2.7420    1.0390 o         1 MOL     -0.730616
    109 O18         0.2920   -1.4000   -0.7310 o         1 MOL     -0.730616
    110 H47        -3.3810    0.8220    1.5790 hn        1 MOL      0.271150
    111 H48        -1.2920    0.5890   -0.4550 h1        1 MOL     -0.008156
    112 H49        -1.4560   -1.2880    1.9220 hc        1 MOL      0.003075
    113 H50        -0.2010   -0.0200    1.6890 hc        1 MOL      0.003075
    114 N11        -4.0850   -0.1040   -0.8550 n         1 MOL     -0.527060
    115 C36        -5.3150   -0.7710   -1.3890 c3        1 MOL      0.314351
    116 C37        -5.7130   -1.9750   -0.4790 c         1 MOL      0.181540
    117 O19        -5.8850   -1.7640    0.6920 o         1 MOL     -0.470446
    118 C38        -6.4880    0.2220   -1.6340 c3        1 MOL     -0.243800
    119 C39        -7.7850   -0.4150   -1.9210 ca        1 MOL      0.091249
    120 C40        -8.1560   -0.5390   -3.2520 ca        1 MOL     -0.137179
    121 C41        -8.6850   -0.8510   -0.9680 ca        1 MOL     -0.137179
    122 C42        -9.4120   -1.0970   -3.6500 ca        1 MOL     -0.146096
    123 C43        -9.9680   -1.3580   -1.2840 ca        1 MOL     -0.146096
    124 C44       -10.2940   -1.5550   -2.6510 ca        1 MOL     -0.098372
    125 H51        -4.0920    0.8980   -0.7160 hn        1 MOL      0.255565
    126 H52        -5.0170   -1.1370   -2.3760 h1        1 MOL      0.026541
    127 H53        -6.2340    0.9280   -2.4310 hc        1 MOL      0.101438
    128 H54        -6.5850    0.7620   -0.6970 hc        1 MOL      0.101438
    129 H55        -7.5370   -0.1420   -4.0350 ha        1 MOL      0.128933
    130 H56        -8.5170   -0.9170    0.0910 ha        1 MOL      0.128933
    131 H57        -9.7130   -1.1680   -4.6800 ha        1 MOL      0.121718
    132 H58       -10.6700   -1.6910   -0.5210 ha        1 MOL      0.121718
    133 H59       -11.2790   -1.9280   -2.8950 ha        1 MOL      0.101937
    134 N12        -6.0850   -3.1460   -1.0220 n         1 MOL     -0.023943
    135 C45        -6.6730   -4.2120   -0.2540 c3        1 MOL     -0.001307
    136 C46        -5.8640   -4.8400    0.9180 c         1 MOL      0.279378
    137 O20        -6.4190   -5.4310    1.8500 o         1 MOL     -0.471871
    138 C47        -7.2430   -5.1860   -1.2060 c3        1 MOL      0.004726
    139 C48        -7.4370   -4.3440   -2.4940 c3        1 MOL     -0.018205
    140 C49        -6.2370   -3.3980   -2.3920 c3        1 MOL      0.012351
    141 H60        -7.4870   -3.7110    0.2670 h1        1 MOL      0.082892
    142 H61        -6.5280   -5.9970   -1.3550 hc        1 MOL      0.024221
    143 H62        -8.1430   -5.6930   -0.8580 hc        1 MOL      0.024221
    144 H63        -7.4120   -4.9580   -3.3900 hc        1 MOL      0.012758
    145 H64        -8.4020   -3.8430   -2.5500 hc        1 MOL      0.012758
    146 H65        -5.3590   -3.8390   -2.8560 h1        1 MOL      0.020953
    147 H66        -6.4830   -2.5010   -2.9670 h1        1 MOL      0.020953
    148 N13        -4.4930   -4.6830    0.9410 n         1 MOL     -0.111195
    149 C50        -3.6170   -5.3570    1.9090 c3        1 MOL     -0.234164
    150 C51        -3.9080   -4.8020    3.3550 c         1 MOL      0.501175
    151 O21        -3.9920   -5.5940    4.2480 o         1 MOL     -0.547817
    152 C52        -2.1860   -5.0190    1.5500 c3        1 MOL      0.200984
    153 C53        -1.8910   -5.8760    0.2970 c3        1 MOL     -0.150559
    154 C54        -0.5840   -5.4470   -0.4090 c         1 MOL      0.653237
    155 O22        -0.5810   -4.7170   -1.3970 o         1 MOL     -0.739397
    156 O23         0.5280   -5.7220    0.1740 o         1 MOL     -0.739397
    157 H67        -4.0920   -4.3410    0.0800 hn        1 MOL      0.205685
    158 H68        -3.7100   -6.4410    1.9080 h1        1 MOL      0.132236
    159 H69        -1.5170   -5.1660    2.4060 hc        1 MOL     -0.009606
    160 H70        -2.1460   -3.9380    1.3940 hc        1 MOL     -0.009606
    161 H71        -2.6180   -5.6820   -0.4970 hc        1 MOL      0.009823
    162 H72        -1.8720   -6.9400    0.5250 hc        1 MOL      0.009823
    163 N14        -4.1960   -3.5270    3.5570 n         1 MOL     -0.215350
    164 C55        -4.4030   -2.8470    4.8410 c3        1 MOL     -0.246263
    165 H73        -4.2370   -3.5520    5.6560 h1        1 MOL      0.102438
    166 H74        -3.7030   -2.0170    4.9300 h1        1 MOL      0.102438
    167 H75        -5.4240   -2.4680    4.8910 h1        1 MOL      0.102438
    168 H76        -4.2370   -2.9640    2.7250 hn        1 MOL      0.226016
    169 Ca1         1.7030   -3.5400   -0.9440 Ca        1 MOL      1.795258
    170 O24         3.6270   -4.6840    0.5390 oh        1 MOL     -0.790845
    171 H77         4.5330   -4.6700    0.2320 ho        1 MOL      0.394242
    172 H78         3.6920   -4.7890    1.4850 ho        1 MOL      0.394242
    173 O25         2.0000   -5.9920   -2.3090 oh        1 MOL     -0.790845
    174 O26         1.2510   -2.7590   -3.7000 oh        1 MOL     -0.790845
    175 H79         1.4340   -6.2880   -3.0200 ho        1 MOL      0.394242
    176 H80         0.9090   -2.8940   -4.5770 ho        1 MOL      0.394242
    177 H81         2.5730   -6.7340   -2.1220 ho        1 MOL      0.394242
    178 H82         1.3720   -1.8200   -3.6200 ho        1 MOL      0.394242
@<TRIPOS>BOND
     1    1    2 1   
     2    1    4 1   
     3    1    5 1   
     4    1    6 1   
     5    2    3 2   
     6    2    7 1   
     7    7    8 1   
     8    7   15 1   
     9    8    9 1   
    10    8   11 1   
    11    8   16 1   
    12    9   10 2   
    13    9   19 1   
    14   11   12 1   
    15   11   17 1   
    16   11   18 1   
    17   12   13 1   
    18   12   14 1   
    19   19   20 1   
    20   19   24 1   
    21   20   21 1   
    22   20   23 1   
    23   20   25 1   
    24   21   22 2   
    25   21   29 1   
    26   23   26 1   
    27   23   27 1   
    28   23   28 1   
    29   29   30 1   
    30   29   37 1   
    31   30   31 1   
    32   30   33 1   
    33   30   38 1   
    34   31   32 2   
    35   31   41 1   
    36   33   34 1   
    37   33   39 1   
    38   33   40 1   
    39   34   35 1   
    40   34   36 1   
    41   41   42 1   
    42   41   45 1   
    43   42   43 1   
    44   42   46 1   
    45   42   47 1   
    46   43   44 2   
    47   43   48 1   
    48   48   49 1   
    49   48   56 1   
    50   49   50 1   
    51   49   52 1   
    52   49   57 1   
    53   50   51 2   
    54   50   62 1   
    55   52   53 1   
    56   52   58 1   
    57   52   59 1   
    58   53   54 1   
    59   53   55 2   
    60   54   60 1   
    61   54   61 1   
    62   62   63 1   
    63   62   66 1   
    64   63   64 1   
    65   63   67 1   
    66   63   68 1   
    67   64   65 2   
    68   64   69 1   
    69   69   70 1   
    70   69   76 1   
    71   70   71 1   
    72   70   73 1   
    73   70   77 1   
    74   71   72 2   
    75   71   83 1   
    76   73   74 1   
    77   73   75 1   
    78   73   78 1   
    79   74   80 1   
    80   74   81 1   
    81   74   82 1   
    82   75   79 1   
    83   83   84 1   
    84   83   91 1   
    85   84   85 1   
    86   84   87 1   
    87   84   92 1   
    88   85   86 2   
    89   85  102 1   
    90   87   88 1   
    91   87   89 1   
    92   87   93 1   
    93   88   90 1   
    94   88   94 1   
    95   88   95 1   
    96   89   96 1   
    97   89   97 1   
    98   89   98 1   
    99   90   99 1   
   100   90  100 1   
   101   90  101 1   
   102  102  103 1   
   103  102  110 1   
   104  103  104 1   
   105  103  106 1   
   106  103  111 1   
   107  104  105 2   
   108  104  114 1   
   109  106  107 1   
   110  106  112 1   
   111  106  113 1   
   112  107  108 1   
   113  107  109 1   
   114  114  115 1   
   115  114  125 1   
   116  115  116 1   
   117  115  118 1   
   118  115  126 1   
   119  116  117 2   
   120  116  134 1   
   121  118  119 1   
   122  118  127 1   
   123  118  128 1   
   124  119  120 ar  
   125  119  121 ar  
   126  120  122 ar  
   127  120  129 1   
   128  121  123 ar  
   129  121  130 1   
   130  122  124 ar  
   131  122  131 1   
   132  123  124 ar  
   133  123  132 1   
   134  124  133 1   
   135  134  135 1   
   136  134  140 1   
   137  135  136 1   
   138  135  138 1   
   139  135  141 1   
   140  136  137 2   
   141  136  148 1   
   142  138  139 1   
   143  138  142 1   
   144  138  143 1   
   145  139  140 1   
   146  139  144 1   
   147  139  145 1   
   148  140  146 1   
   149  140  147 1   
   150  148  149 1   
   151  148  157 1   
   152  149  150 1   
   153  149  152 1   
   154  149  158 1   
   155  150  151 2   
   156  150  163 1   
   157  152  153 1   
   158  152  159 1   
   159  152  160 1   
   160  153  154 1   
   161  153  161 1   
   162  153  162 1   
   163  154  155 1   
   164  154  156 1   
   165  163  164 1   
   166  163  168 1   
   167  164  165 1   
   168  164  166 1   
   169  164  167 1   
   170  170  171 1   
   171  170  172 1   
   172  173  175 1   
   173  173  177 1   
   174  174  176 1   
   175  174  178 1   
@<TRIPOS>SUBSTRUCTURE
     1 MOL         1 TEMP              0 ****  ****    0 ROOT
