@<TRIPOS>MOLECULE
MOL
  178   175     1     0     0
SMALL
resp


@<TRIPOS>ATOM
      1 C1          1.8180    5.6950   -3.4030 c3        1 MOL     -0.378421
      2 C2          2.5790    5.6520   -2.0590 c         1 MOL      0.696857
      3 O1          1.9910    5.6770   -0.9810 o         1 MOL     -0.592087
      4 H1          1.8890    6.6970   -3.8270 hc        1 MOL      0.089523
      5 H2          2.2580    4.9760   -4.0940 hc        1 MOL      0.089523
      6 H3          0.7710    5.4450   -3.2360 hc        1 MOL      0.089523
      7 N1          3.8610    5.4270   -2.0830 n         1 MOL     -0.465457
      8 C3          4.7110    5.5400   -0.9730 c3        1 MOL     -0.034893
      9 C4          4.4180    4.5390    0.2000 c         1 MOL      0.773034
     10 O2          3.8800    3.4580    0.0120 o         1 MOL     -0.591803
     11 C5          6.1530    5.4750   -1.4250 c3        1 MOL     -0.180634
     12 C6          6.4340    6.3730   -2.5800 c         1 MOL      0.644607
     13 O3          6.8560    5.8570   -3.6770 o         1 MOL     -0.705189
     14 O4          6.0910    7.6000   -2.4440 o         1 MOL     -0.705189
     15 H4          4.2960    5.2600   -2.9770 hn        1 MOL      0.316185
     16 H5          4.6010    6.5670   -0.6220 h1        1 MOL      0.072271
     17 H6          6.3280    4.4520   -1.7580 hc        1 MOL      0.025218
     18 H7          6.9070    5.6190   -0.6460 hc        1 MOL      0.025218
     19 N2          4.7410    4.9260    1.4180 n         1 MOL     -0.798406
     20 C7          4.5530    4.1290    2.6040 c3        1 MOL      0.698619
     21 C8          3.0910    3.6050    2.8210 c         1 MOL      0.258513
     22 O5          2.1510    4.3290    2.6280 o         1 MOL     -0.493942
     23 C9          4.9850    4.9120    3.8700 c3        1 MOL     -0.404762
     24 H8          5.0830    5.8320    1.6710 hn        1 MOL      0.338023
     25 H9          5.2620    3.3060    2.5250 h1        1 MOL     -0.091314
     26 H10         6.0540    5.1030    3.7680 hc        1 MOL      0.086990
     27 H11         4.3600    5.8040    3.9860 hc        1 MOL      0.086990
     28 H12         4.7320    4.2220    4.6770 hc        1 MOL      0.086990
     29 N3          2.8130    2.3670    3.2680 n         1 MOL     -0.198620
     30 C10         3.8090    1.3180    3.6220 c3        1 MOL     -0.039037
     31 C11         4.1930    0.4030    2.4280 c         1 MOL      0.441145
     32 O6          3.4340    0.3550    1.4140 o         1 MOL     -0.464601
     33 C12         3.1960    0.5060    4.7820 c3        1 MOL     -0.229037
     34 C13         1.7580   -0.0090    4.5380 c         1 MOL      0.571587
     35 O7          1.1250   -0.5530    5.4930 o         1 MOL     -0.606596
     36 O8          1.2690    0.1150    3.3400 o         1 MOL     -0.606596
     37 H13         1.8460    2.0740    3.3060 hn        1 MOL      0.233280
     38 H14         4.6900    1.7490    4.1050 h1        1 MOL      0.030898
     39 H15         3.2610    1.1820    5.6290 hc        1 MOL      0.059257
     40 H16         3.8130   -0.3860    4.9500 hc        1 MOL      0.059257
     41 N4          5.3550   -0.2490    2.5570 n         1 MOL     -0.414904
     42 C14         5.8760   -1.2290    1.5530 c3        1 MOL      0.044559
     43 C15         6.4870   -0.6570    0.2500 c         1 MOL      0.454205
     44 O9          6.5740    0.5940    0.1050 o         1 MOL     -0.466461
     45 H17         5.8060   -0.2670    3.4570 hn        1 MOL      0.300763
     46 H18         5.2420   -2.0890    1.3120 h1        1 MOL      0.045827
     47 H19         6.6800   -1.6910    2.1370 h1        1 MOL      0.045827
     48 N5          6.7220   -1.4950   -0.7790 n         1 MOL     -0.487523
     49 C16         6.8930   -2.9550   -0.6950 c3        1 MOL      0.209901
     50 C17         5.9750   -3.7460   -1.6640 c         1 MOL      0.455029
     51 O10         6.1570   -4.9390   -1.9160 o         1 MOL     -0.518174
     52 C18         8.3400   -3.3330   -0.9090 c3        1 MOL     -0.270653
     53 C19         9.3340   -2.5940    0.0060 c         1 MOL      0.568216
     54 N6          9.2580   -2.7730    1.3440 n         1 MOL     -0.651718
     55 O11        10.1460   -1.7820   -0.4290 o         1 MOL     -0.501951
     56 H20         6.8940   -1.0680   -1.6680 hn        1 MOL      0.310398
     57 H21         6.6270   -3.3610    0.2830 h1        1 MOL      0.042797
     58 H22         8.6060   -3.0420   -1.9280 hc        1 MOL      0.085317
     59 H23         8.4580   -4.3900   -0.6950 hc        1 MOL      0.085317
     60 H24         8.9030   -3.6340    1.7230 hn        1 MOL      0.316854
     61 H25        10.0070   -2.3280    1.8550 hn        1 MOL      0.316854
     62 N7          5.0350   -3.0720   -2.3440 n         1 MOL     -0.173120
     63 C20         4.3950   -3.5670   -3.5070 c3        1 MOL     -0.285617
     64 C21         3.1070   -4.3570   -3.2000 c         1 MOL      0.500100
     65 O12         2.5720   -5.1130   -4.0190 o         1 MOL     -0.574025
     66 H26         5.1330   -2.0640   -2.3350 hn        1 MOL      0.209439
     67 H27         5.0760   -4.2280   -4.0390 h1        1 MOL      0.135281
     68 H28         3.9180   -2.7380   -4.0220 h1        1 MOL      0.135281
     69 N8          2.4950   -4.2120   -2.0550 n         1 MOL      0.002542
     70 C22         1.2020   -4.7940   -1.6700 c3        1 MOL     -0.328019
     71 C23         0.1600   -3.7690   -1.2480 c         1 MOL      0.477576
     72 O13         0.4670   -2.7130   -0.7300 o         1 MOL     -0.541550
     73 C24         1.2750   -5.7830   -0.4770 c3        1 MOL      0.371834
     74 C25         1.9580   -7.1050   -0.8070 c3        1 MOL     -0.434057
     75 O14         1.9420   -5.2670    0.6350 oh        1 MOL     -0.646127
     76 H29         3.1100   -3.8050   -1.3650 hn        1 MOL      0.146715
     77 H30         0.9010   -5.2940   -2.5820 h1        1 MOL      0.164674
     78 H31         0.2920   -5.9140   -0.0200 h1        1 MOL      0.037160
     79 H32         1.4960   -5.6570    1.3900 ho        1 MOL      0.442885
     80 H33         1.4440   -7.7050   -1.5570 hc        1 MOL      0.116023
     81 H34         2.9180   -6.8910   -1.2730 hc        1 MOL      0.116023
     82 H35         2.1210   -7.7350    0.0650 hc        1 MOL      0.116023
     83 N9         -1.0500   -4.1430   -1.4160 n         1 MOL     -0.232022
     84 C26        -2.2440   -3.3480   -1.2030 c3        1 MOL     -0.134901
     85 C27        -2.9240   -3.7100    0.1690 c         1 MOL      0.512289
     86 O15        -3.1160   -4.8890    0.5200 o         1 MOL     -0.604913
     87 C28        -3.2500   -3.5710   -2.3850 c3        1 MOL      0.291545
     88 C29        -4.3430   -2.4550   -2.3720 c3        1 MOL      0.067845
     89 C30        -2.5480   -3.6310   -3.7930 c3        1 MOL     -0.424670
     90 C31        -5.5060   -2.8650   -3.2410 c3        1 MOL     -0.124378
     91 H36        -1.2180   -4.9880   -1.9450 hn        1 MOL      0.207347
     92 H37        -1.9370   -2.3070   -1.2190 h1        1 MOL      0.151907
     93 H38        -3.7260   -4.5390   -2.2250 hc        1 MOL     -0.031176
     94 H39        -3.9350   -1.5130   -2.7240 hc        1 MOL     -0.032769
     95 H40        -4.7440   -2.3930   -1.3640 hc        1 MOL     -0.032769
     96 H41        -1.9230   -4.5230   -3.9080 hc        1 MOL      0.093158
     97 H42        -3.2680   -3.5600   -4.6050 hc        1 MOL      0.093158
     98 H43        -1.9780   -2.6980   -3.8290 hc        1 MOL      0.093158
     99 H44        -5.2810   -2.9560   -4.3010 hc        1 MOL      0.018426
    100 H45        -5.9400   -3.8370   -2.9690 hc        1 MOL      0.018426
    101 H46        -6.3100   -2.1440   -3.1230 hc        1 MOL      0.018426
    102 N10        -3.2730   -2.6680    0.8670 n         1 MOL      0.084890
    103 C32        -3.6920   -2.7030    2.2830 c3        1 MOL     -0.212542
    104 C33        -5.0950   -1.9500    2.3910 c         1 MOL      0.420449
    105 O16        -5.8420   -2.1010    3.3630 o         1 MOL     -0.534453
    106 C34        -2.6330   -1.9450    3.1290 c3        1 MOL      0.056196
    107 C35        -1.2270   -2.6140    3.0940 c         1 MOL      0.596824
    108 O17        -0.3830   -2.2120    2.2290 o         1 MOL     -0.685937
    109 O18        -1.0270   -3.5430    3.9330 o         1 MOL     -0.685937
    110 H47        -3.1160   -1.7440    0.4890 hn        1 MOL     -0.229832
    111 H48        -3.8240   -3.7400    2.6010 h1        1 MOL      0.159319
    112 H49        -3.0150   -1.8020    4.1410 hc        1 MOL      0.021190
    113 H50        -2.5630   -0.8770    2.9000 hc        1 MOL      0.021190
    114 N11        -5.4710   -1.1020    1.4100 n         1 MOL     -0.461860
    115 C36        -6.7330   -0.3240    1.2670 c3        1 MOL      0.645928
    116 C37        -6.5140    1.0920    0.6360 c         1 MOL      0.184071
    117 O19        -7.1760    1.4580   -0.3170 o         1 MOL     -0.368878
    118 C38        -7.8640   -1.2390    0.6400 c3        1 MOL     -0.409531
    119 C39        -9.2200   -0.5530    0.5970 ca        1 MOL      0.149142
    120 C40        -9.8120   -0.2400    1.8430 ca        1 MOL     -0.225347
    121 C41        -9.6960    0.1020   -0.5770 ca        1 MOL     -0.225347
    122 C42       -10.9080    0.6150    1.9160 ca        1 MOL     -0.056216
    123 C43       -10.8910    0.9060   -0.4570 ca        1 MOL     -0.056216
    124 C44       -11.4770    1.1120    0.7670 ca        1 MOL     -0.178042
    125 H51        -4.7730   -0.9490    0.7090 hn        1 MOL      0.243577
    126 H52        -7.0560   -0.1410    2.2890 h1        1 MOL     -0.070050
    127 H53        -7.9700   -2.0260    1.3840 hc        1 MOL      0.121421
    128 H54        -7.4810   -1.5960   -0.3160 hc        1 MOL      0.121421
    129 H55        -9.3190   -0.6160    2.7250 ha        1 MOL      0.135640
    130 H56        -9.1460   -0.0780   -1.4840 ha        1 MOL      0.135640
    131 H57       -11.2640    0.9360    2.8760 ha        1 MOL      0.087933
    132 H58       -11.3260    1.3450   -1.3380 ha        1 MOL      0.087933
    133 H59       -12.2980    1.8040    0.9020 ha        1 MOL      0.101859
    134 N12        -5.6690    1.9210    1.2800 n         1 MOL     -0.133938
    135 C45        -5.3670    3.2820    0.8090 c3        1 MOL      0.035399
    136 C46        -4.9990    3.4480   -0.6610 c         1 MOL      0.145512
    137 O20        -5.3730    4.4700   -1.2780 o         1 MOL     -0.471298
    138 C47        -4.1950    3.7910    1.6770 c3        1 MOL      0.083788
    139 C48        -4.3300    3.0260    3.0240 c3        1 MOL     -0.217894
    140 C49        -4.8000    1.6910    2.4600 c3        1 MOL     -0.066550
    141 H60        -6.2200    3.9180    1.0310 h1        1 MOL      0.060929
    142 H61        -3.2590    3.5210    1.1990 hc        1 MOL      0.027957
    143 H62        -4.1800    4.8700    1.8370 hc        1 MOL      0.027957
    144 H63        -3.3480    2.9760    3.4920 hc        1 MOL      0.076468
    145 H64        -5.0730    3.4840    3.6630 hc        1 MOL      0.076468
    146 H65        -3.8450    1.2010    2.2230 h1        1 MOL      0.110267
    147 H66        -5.3300    1.1860    3.2660 h1        1 MOL      0.110267
    148 N13        -4.2670    2.4630   -1.2170 n         1 MOL      0.076296
    149 C50        -3.6160    2.6450   -2.5200 c3        1 MOL     -0.235294
    150 C51        -4.5420    2.7480   -3.7220 c         1 MOL      0.491026
    151 O21        -4.2770    3.4190   -4.6650 o         1 MOL     -0.555723
    152 C52        -2.8140    1.3720   -2.9530 c3        1 MOL      0.311610
    153 C53        -1.7060    1.0560   -1.9540 c3        1 MOL     -0.276962
    154 C54        -2.1380    0.3480   -0.6480 c         1 MOL      0.790663
    155 O22        -1.2500    0.0910    0.1750 o         1 MOL     -0.649297
    156 O23        -3.3190   -0.0750   -0.4450 o         1 MOL     -0.649297
    157 H67        -4.0700    1.6120   -0.7220 hn        1 MOL      0.100128
    158 H68        -2.9630    3.5090   -2.4820 h1        1 MOL      0.129243
    159 H69        -2.3860    1.6280   -3.9260 hc        1 MOL     -0.063978
    160 H70        -3.5460    0.5760   -3.1060 hc        1 MOL     -0.063978
    161 H71        -1.0630    1.9040   -1.7020 hc        1 MOL      0.039104
    162 H72        -1.1370    0.2920   -2.4850 hc        1 MOL      0.039104
    163 N14        -5.6990    2.1140   -3.5830 n         1 MOL     -0.116579
    164 C55        -6.8440    2.1310   -4.5500 c3        1 MOL     -0.205964
    165 H73        -6.7160    2.9570   -5.2500 h1        1 MOL      0.085561
    166 H74        -6.8690    1.1900   -5.1000 h1        1 MOL      0.085561
    167 H75        -7.7790    2.2590   -4.0050 h1        1 MOL      0.085561
    168 H76        -5.8880    1.6750   -2.6930 hn        1 MOL      0.135659
    169 Ca1         1.1570   -0.7940    0.8410 Ca        1 MOL      1.680029
    170 O24         2.8200   -2.8620    1.2980 oh        1 MOL     -0.952111
    171 H77         2.8820   -3.0900    2.2210 ho        1 MOL      0.448260
    172 H78         2.3730   -3.6160    0.8910 ho        1 MOL      0.448260
    173 O25         2.7020   -0.8300   -1.3830 oh        1 MOL     -0.952111
    174 H79         3.3520   -0.1420   -1.2420 ho        1 MOL      0.448260
    175 H80         2.6150   -0.8840   -2.3350 ho        1 MOL      0.448260
    176 O26         1.2700    1.8980    0.4690 oh        1 MOL     -0.952111
    177 H81         0.7020    2.6660    0.4330 ho        1 MOL      0.448260
    178 H82         2.1590    2.2700    0.4470 ho        1 MOL      0.448260
@<TRIPOS>BOND
     1    1    2 1   
     2    1    4 1   
     3    1    5 1   
     4    1    6 1   
     5    2    3 2   
     6    2    7 1   
     7    7    8 1   
     8    7   15 1   
     9    8    9 1   
    10    8   11 1   
    11    8   16 1   
    12    9   10 2   
    13    9   19 1   
    14   11   12 1   
    15   11   17 1   
    16   11   18 1   
    17   12   13 1   
    18   12   14 1   
    19   19   20 1   
    20   19   24 1   
    21   20   21 1   
    22   20   23 1   
    23   20   25 1   
    24   21   22 2   
    25   21   29 1   
    26   23   26 1   
    27   23   27 1   
    28   23   28 1   
    29   29   30 1   
    30   29   37 1   
    31   30   31 1   
    32   30   33 1   
    33   30   38 1   
    34   31   32 2   
    35   31   41 1   
    36   33   34 1   
    37   33   39 1   
    38   33   40 1   
    39   34   35 1   
    40   34   36 1   
    41   41   42 1   
    42   41   45 1   
    43   42   43 1   
    44   42   46 1   
    45   42   47 1   
    46   43   44 2   
    47   43   48 1   
    48   48   49 1   
    49   48   56 1   
    50   49   50 1   
    51   49   52 1   
    52   49   57 1   
    53   50   51 2   
    54   50   62 1   
    55   52   53 1   
    56   52   58 1   
    57   52   59 1   
    58   53   54 1   
    59   53   55 2   
    60   54   60 1   
    61   54   61 1   
    62   62   63 1   
    63   62   66 1   
    64   63   64 1   
    65   63   67 1   
    66   63   68 1   
    67   64   65 2   
    68   64   69 1   
    69   69   70 1   
    70   69   76 1   
    71   70   71 1   
    72   70   73 1   
    73   70   77 1   
    74   71   72 2   
    75   71   83 1   
    76   73   74 1   
    77   73   75 1   
    78   73   78 1   
    79   74   80 1   
    80   74   81 1   
    81   74   82 1   
    82   75   79 1   
    83   83   84 1   
    84   83   91 1   
    85   84   85 1   
    86   84   87 1   
    87   84   92 1   
    88   85   86 2   
    89   85  102 1   
    90   87   88 1   
    91   87   89 1   
    92   87   93 1   
    93   88   90 1   
    94   88   94 1   
    95   88   95 1   
    96   89   96 1   
    97   89   97 1   
    98   89   98 1   
    99   90   99 1   
   100   90  100 1   
   101   90  101 1   
   102  102  103 1   
   103  102  110 1   
   104  103  104 1   
   105  103  106 1   
   106  103  111 1   
   107  104  105 2   
   108  104  114 1   
   109  106  107 1   
   110  106  112 1   
   111  106  113 1   
   112  107  108 1   
   113  107  109 1   
   114  114  115 1   
   115  114  125 1   
   116  115  116 1   
   117  115  118 1   
   118  115  126 1   
   119  116  117 2   
   120  116  134 1   
   121  118  119 1   
   122  118  127 1   
   123  118  128 1   
   124  119  120 ar  
   125  119  121 ar  
   126  120  122 ar  
   127  120  129 1   
   128  121  123 ar  
   129  121  130 1   
   130  122  124 ar  
   131  122  131 1   
   132  123  124 ar  
   133  123  132 1   
   134  124  133 1   
   135  134  135 1   
   136  134  140 1   
   137  135  136 1   
   138  135  138 1   
   139  135  141 1   
   140  136  137 2   
   141  136  148 1   
   142  138  139 1   
   143  138  142 1   
   144  138  143 1   
   145  139  140 1   
   146  139  144 1   
   147  139  145 1   
   148  140  146 1   
   149  140  147 1   
   150  148  149 1   
   151  148  157 1   
   152  149  150 1   
   153  149  152 1   
   154  149  158 1   
   155  150  151 2   
   156  150  163 1   
   157  152  153 1   
   158  152  159 1   
   159  152  160 1   
   160  153  154 1   
   161  153  161 1   
   162  153  162 1   
   163  154  155 1   
   164  154  156 1   
   165  163  164 1   
   166  163  168 1   
   167  164  165 1   
   168  164  166 1   
   169  164  167 1   
   170  170  171 1   
   171  170  172 1   
   172  173  174 1   
   173  173  175 1   
   174  176  177 1   
   175  176  178 1   
@<TRIPOS>SUBSTRUCTURE
     1 MOL         1 TEMP              0 ****  ****    0 ROOT
