@<TRIPOS>MOLECULE
MOL
  182   178     1     0     0
SMALL
resp


@<TRIPOS>ATOM
      1 C1          0.7040   -4.2720    5.9840 c3        1 MOL     -0.384642
      2 C2          0.7190   -3.7800    4.5610 c         1 MOL      0.795756
      3 O1         -0.2600   -3.7450    3.7800 o         1 MOL     -0.652187
      4 H1          1.6400   -4.0010    6.4710 hc        1 MOL      0.113092
      5 H2         -0.1300   -3.8150    6.5170 hc        1 MOL      0.113092
      6 H3          0.5910   -5.3560    5.9930 hc        1 MOL      0.113092
      7 N1          1.8760   -3.4940    4.0380 n         1 MOL     -0.622399
      8 C3          2.1750   -2.9960    2.6830 c3        1 MOL     -0.018561
      9 C4          2.5150   -4.2430    1.8690 c         1 MOL      0.732582
     10 O2          3.1820   -5.1770    2.3580 o         1 MOL     -0.550558
     11 C5          3.2910   -1.9740    2.7950 c3        1 MOL     -0.070154
     12 C6          3.5650   -1.2030    1.4840 c         1 MOL      0.589248
     13 O3          3.7800    0.0080    1.5420 o         1 MOL     -0.670987
     14 O4          3.4710   -1.7810    0.3520 o         1 MOL     -0.670987
     15 H4          2.6360   -3.7380    4.6620 hn        1 MOL      0.319647
     16 H5          1.3110   -2.4650    2.2670 h1        1 MOL      0.040341
     17 H6          4.1840   -2.4630    3.1930 hc        1 MOL      0.053715
     18 H7          2.9680   -1.1660    3.4460 hc        1 MOL      0.053715
     19 N2          2.0670   -4.2990    0.6090 n         1 MOL     -0.289042
     20 C7          2.2990   -5.3780   -0.3680 c3        1 MOL     -0.205742
     21 C8          3.8100   -5.4290   -0.7190 c         1 MOL      0.585315
     22 O5          4.4380   -6.4450   -0.8950 o         1 MOL     -0.543786
     23 C9          1.4990   -5.2170   -1.6560 c3        1 MOL      0.089489
     24 C10        -0.0340   -5.2940   -1.5070 c3        1 MOL      0.010524
     25 C11        -0.7990   -5.2920   -2.7750 c3        1 MOL     -0.124318
     26 C12        -2.3990   -5.3380   -2.6390 c3        1 MOL      0.180104
     27 N3         -3.0100   -5.6110   -3.9650 n4        1 MOL     -0.372683
     28 H8          1.7120   -3.4320    0.2160 hn        1 MOL      0.046322
     29 H9          2.0430   -6.3110    0.1370 h1        1 MOL      0.132869
     30 H10         1.8040   -6.0460   -2.2870 hc        1 MOL      0.027540
     31 H11         1.7480   -4.3660   -2.2930 hc        1 MOL      0.027540
     32 H12        -0.3510   -4.4050   -0.9630 hc        1 MOL      0.028541
     33 H13        -0.3520   -6.1990   -0.9990 hc        1 MOL      0.028541
     34 H14        -0.5130   -6.1330   -3.4160 hc        1 MOL      0.025182
     35 H15        -0.5110   -4.3670   -3.2790 hc        1 MOL      0.025182
     36 H16        -2.8000   -4.5460   -2.0100 hx        1 MOL      0.051599
     37 H17        -2.6200   -6.2100   -2.0300 hx        1 MOL      0.051599
     38 H18        -2.8740   -6.5530   -4.2970 hn        1 MOL      0.263726
     39 H19        -4.0100   -5.4320   -3.9310 hn        1 MOL      0.263726
     40 H20        -2.6550   -4.9180   -4.6120 hn        1 MOL      0.263726
     41 N4          4.4010   -4.2090   -0.7630 n         1 MOL     -0.143490
     42 C13         5.6840   -3.8540   -1.4500 c3        1 MOL      0.027382
     43 C14         6.6620   -3.0430   -0.6030 c         1 MOL      0.303656
     44 O6          7.8320   -2.9230   -0.8920 o         1 MOL     -0.450549
     45 C15         5.2650   -3.0890   -2.7880 c3        1 MOL     -0.205359
     46 C16         4.4910   -1.7630   -2.5720 c         1 MOL      0.745677
     47 O7          5.0050   -0.8020   -1.8850 o         1 MOL     -0.767889
     48 O8          3.2800   -1.6460   -2.9360 o         1 MOL     -0.767889
     49 H21         3.8810   -3.4560   -0.3430 hn        1 MOL     -0.134677
     50 H22         6.1920   -4.7840   -1.7310 h1        1 MOL      0.112516
     51 H23         4.6330   -3.7910   -3.3270 hc        1 MOL      0.062368
     52 H24         6.1900   -2.9100   -3.3290 hc        1 MOL      0.062368
     53 N5          6.1400   -2.5070    0.5540 n         1 MOL      0.001232
     54 C17         6.8430   -1.6910    1.4830 c3        1 MOL     -0.441131
     55 C18         7.3230   -0.3090    1.0050 c         1 MOL      0.761677
     56 O9          8.1030    0.2880    1.6910 o         1 MOL     -0.572130
     57 H25         5.1680   -2.7090    0.7520 hn        1 MOL      0.102031
     58 H26         7.6260   -2.3760    1.8160 h1        1 MOL      0.154637
     59 H27         6.0840   -1.4000    2.2140 h1        1 MOL      0.154637
     60 N6          6.7910    0.2050   -0.1170 n         1 MOL     -0.451639
     61 C19         7.2740    1.4590   -0.7450 c3        1 MOL     -0.032519
     62 C20         6.1120    2.4890   -0.9860 c         1 MOL      0.495847
     63 O10         4.9660    2.1010   -0.9480 o         1 MOL     -0.465043
     64 C21         8.0680    1.2540   -2.0310 c3        1 MOL     -0.216432
     65 C22         9.3080    0.3130   -1.8940 c         1 MOL      0.669193
     66 N7          9.3250   -0.7450   -2.6650 n         1 MOL     -0.817837
     67 O11        10.2210    0.5690   -1.1370 o         1 MOL     -0.525402
     68 H28         6.2130   -0.3730   -0.7040 hn        1 MOL      0.414539
     69 H29         7.9930    1.9830   -0.1130 h1        1 MOL      0.080948
     70 H30         8.3670    2.2180   -2.4600 hc        1 MOL      0.038069
     71 H31         7.4510    0.8460   -2.8370 hc        1 MOL      0.038069
     72 H32         8.5750   -0.9390   -3.3220 hn        1 MOL      0.377776
     73 H33        10.1620   -1.2980   -2.7310 hn        1 MOL      0.377776
     74 N8          6.3290    3.7930   -0.9480 n         1 MOL     -0.281447
     75 C23         5.2970    4.7960   -1.0340 c3        1 MOL     -0.386562
     76 C24         4.2600    4.6560    0.1120 c         1 MOL      0.701891
     77 O12         4.6490    4.5240    1.2780 o         1 MOL     -0.502629
     78 H34         7.3050    3.9890   -0.7710 hn        1 MOL      0.297669
     79 H35         4.8420    4.7260   -2.0240 h1        1 MOL      0.156080
     80 H36         5.7610    5.7760   -0.9540 h1        1 MOL      0.156080
     81 N9          2.9500    4.7680   -0.2390 n         1 MOL     -0.631727
     82 C25         1.8340    4.6930    0.6930 c3        1 MOL      0.201864
     83 C26         1.4560    3.1880    1.0090 c         1 MOL      0.575729
     84 O13         2.0740    2.2930    0.4720 o         1 MOL     -0.624541
     85 C27         0.6420    5.3890    0.1190 c3        1 MOL     -0.205715
     86 C28         0.8730    6.9200   -0.0820 ca        1 MOL      0.104363
     87 C29         1.0760    7.7480    1.0230 ca        1 MOL     -0.165041
     88 C30         1.0180    7.4420   -1.3710 ca        1 MOL     -0.165041
     89 C31         1.1940    9.1430    0.8870 ca        1 MOL     -0.260524
     90 C32         0.9730    8.8730   -1.5110 ca        1 MOL     -0.260524
     91 C33         1.0530    9.7020   -0.4130 ca        1 MOL      0.326305
     92 O14         1.1880   11.0410   -0.6910 oh        1 MOL     -0.463671
     93 H37         2.8040    4.9420   -1.2260 hn        1 MOL      0.322431
     94 H38         2.1050    5.1810    1.6260 h1        1 MOL      0.059722
     95 H39        -0.2550    5.1640    0.6950 hc        1 MOL      0.058895
     96 H40         0.3980    4.9640   -0.8570 hc        1 MOL      0.058895
     97 H41         1.1520    7.2970    2.0040 ha        1 MOL      0.131062
     98 H42         0.9680    6.8430   -2.2660 ha        1 MOL      0.131062
     99 H43         1.3830    9.6950    1.7970 ha        1 MOL      0.163138
    100 H44         1.0240    9.3130   -2.5000 ha        1 MOL      0.163138
    101 H45         1.3320   11.4110    0.1850 ho        1 MOL      0.358296
    102 N10         0.5270    2.9350    1.9030 n         1 MOL     -0.554948
    103 C34        -0.0530    1.6100    2.3820 c3        1 MOL      0.147835
    104 C35        -0.3210    0.4730    1.3850 c         1 MOL      0.060780
    105 O15         0.6070   -0.1160    0.8630 o         1 MOL      0.029014
    106 C36         0.8490    1.0990    3.5590 c3        1 MOL      0.260431
    107 C37         0.3530   -0.1390    4.3410 c3        1 MOL     -0.229928
    108 C38         1.3690    2.1350    4.5610 c3        1 MOL     -0.337709
    109 C39        -0.7350    0.1230    5.3290 c3        1 MOL     -0.278440
    110 H46         0.1800    3.8060    2.2960 hn        1 MOL      0.291010
    111 H47        -0.9960    1.9060    2.8500 h1        1 MOL      0.052258
    112 H48         1.7350    0.8000    2.9960 hc        1 MOL      0.039679
    113 H49         1.1800   -0.5570    4.9070 hc        1 MOL      0.101722
    114 H50         0.1210   -0.9050    3.5960 hc        1 MOL      0.101722
    115 H51         1.8820    1.5810    5.3440 hc        1 MOL      0.081272
    116 H52         2.0000    2.9180    4.1330 hc        1 MOL      0.081272
    117 H53         0.5050    2.6470    4.9910 hc        1 MOL      0.081272
    118 H54        -1.5530    0.6420    4.8240 hc        1 MOL      0.079855
    119 H55        -0.9920   -0.8090    5.8330 hc        1 MOL      0.079855
    120 H56        -0.4700    0.7520    6.1760 hc        1 MOL      0.079855
    121 N11        -1.5710    0.1530    1.1180 n         1 MOL     -0.286356
    122 C40        -1.9180   -0.9770    0.2520 c3        1 MOL     -0.093808
    123 C41        -3.3700   -1.0210   -0.2550 c         1 MOL      0.522242
    124 O16        -3.8060   -1.9950   -0.8920 o         1 MOL     -0.517076
    125 C42        -1.5700   -2.3570    0.9380 c3        1 MOL      0.466027
    126 O17        -2.1240   -2.3960    2.2400 oh        1 MOL     -0.651453
    127 H57        -2.3160    0.7830    1.3880 hn        1 MOL      0.248355
    128 H58        -1.2470   -0.7900   -0.5970 h1        1 MOL      0.027896
    129 H59        -0.4760   -2.4060    0.9700 h1        1 MOL     -0.054839
    130 H60        -1.9190   -3.2220    0.3890 h1        1 MOL     -0.054839
    131 H61        -1.5830   -2.9570    2.7840 ho        1 MOL      0.403912
    132 N12        -4.2470   -0.1400    0.2720 n         1 MOL     -0.395350
    133 C43        -5.6590   -0.0060   -0.2960 c3        1 MOL     -0.053324
    134 C44        -5.8130    0.3540   -1.7780 c         1 MOL      0.646215
    135 O18        -4.8450    0.8210   -2.3250 o         1 MOL     -0.586988
    136 C45        -6.4530    1.0130    0.5870 c3        1 MOL     -0.141714
    137 H62        -4.0410    0.6700    0.8290 hn        1 MOL      0.277354
    138 H63        -6.1470   -0.9640   -0.1090 h1        1 MOL      0.133491
    139 H64        -6.4570    0.6380    1.6090 hc        1 MOL      0.059951
    140 H65        -5.9840    1.9990    0.6170 hc        1 MOL      0.059951
    141 H66        -7.4130    1.1210    0.0780 hc        1 MOL      0.059951
    142 N13        -6.8550    0.0150   -2.5060 n         1 MOL     -0.628039
    143 C46        -8.1300   -0.5320   -2.0000 c3        1 MOL      0.446483
    144 C47        -9.2910    0.1980   -2.6700 c         1 MOL      0.346924
    145 O19        -9.2680    0.6120   -3.7820 o         1 MOL     -0.497045
    146 C48        -8.2430   -2.0650   -2.2680 c3        1 MOL     -0.423198
    147 H67        -6.7620    0.1410   -3.5000 hn        1 MOL      0.334717
    148 H68        -8.1680   -0.5010   -0.9070 h1        1 MOL     -0.008545
    149 H69        -8.2490   -2.2170   -3.3470 hc        1 MOL      0.115364
    150 H70        -7.3490   -2.4740   -1.7860 hc        1 MOL      0.115364
    151 H71        -9.1910   -2.4180   -1.8670 hc        1 MOL      0.115364
    152 N14       -10.4740    0.3100   -1.9980 n         1 MOL     -0.362555
    153 C49       -10.7940   -0.0670   -0.6850 c3        1 MOL     -0.124976
    154 C50       -10.3140    0.7530    0.4360 c         1 MOL      0.277111
    155 O20       -10.1200    0.3080    1.5850 o         1 MOL     -0.450529
    156 C51       -12.3410   -0.1230   -0.5900 c3        1 MOL      0.189749
    157 C52       -12.8800   -0.6780    0.7510 c3        1 MOL     -0.414029
    158 C53       -14.3640   -0.5970    0.9120 c         1 MOL      0.775243
    159 O21       -14.8260    0.3570    1.5370 o         1 MOL     -0.668511
    160 O22       -15.1260   -1.4360    0.3870 o         1 MOL     -0.668511
    161 H72       -11.1800    0.8470   -2.4860 hn        1 MOL      0.285057
    162 H73       -10.5220   -1.1150   -0.5140 h1        1 MOL      0.114341
    163 H74       -12.7320   -0.7480   -1.3990 hc        1 MOL     -0.001771
    164 H75       -12.6480    0.8720   -0.9400 hc        1 MOL     -0.001771
    165 H76       -12.5030   -0.0250    1.5410 hc        1 MOL      0.115388
    166 H77       -12.5140   -1.6380    1.0840 hc        1 MOL      0.115388
    167 N15       -10.2300    2.0940    0.1200 n         1 MOL     -0.202752
    168 C54        -9.4890    3.0020    0.9800 c3        1 MOL     -0.208595
    169 H78        -8.4470    3.0300    0.6650 h1        1 MOL      0.096491
    170 H79        -9.9170    4.0020    0.9080 h1        1 MOL      0.096491
    171 H80        -9.5470    2.6550    2.0110 h1        1 MOL      0.096491
    172 H81       -10.7470    2.4500   -0.6640 hn        1 MOL      0.252875
    173 Ca1         2.8780    0.3860   -1.0340 Ca        1 MOL      1.727046
    174 O23         3.1630    1.5500   -3.4580 oh        1 MOL     -0.874558
    175 H82         3.8450    2.0030   -3.9620 ho        1 MOL      0.429140
    176 H83         2.8760    0.8410   -4.0360 ho        1 MOL      0.429140
    177 O24         0.5850    1.1860   -2.1390 oh        1 MOL     -0.874558
    178 H84        -0.3560    1.0310   -2.0330 ho        1 MOL      0.429140
    179 H85         0.6460    1.8110   -2.8670 ho        1 MOL      0.429140
    180 O25         1.1810   -1.9030   -1.5720 oh        1 MOL     -0.874558
    181 H86         1.9590   -2.3070   -1.9680 ho        1 MOL      0.429140
    182 H87         0.5530   -1.8360   -2.2950 ho        1 MOL      0.429140
@<TRIPOS>BOND
     1    1    2 1   
     2    1    4 1   
     3    1    5 1   
     4    1    6 1   
     5    2    3 2   
     6    2    7 1   
     7    7    8 1   
     8    7   15 1   
     9    8    9 1   
    10    8   11 1   
    11    8   16 1   
    12    9   10 2   
    13    9   19 1   
    14   11   12 1   
    15   11   17 1   
    16   11   18 1   
    17   12   13 1   
    18   12   14 1   
    19   19   20 1   
    20   19   28 1   
    21   20   21 1   
    22   20   23 1   
    23   20   29 1   
    24   21   22 2   
    25   21   41 1   
    26   23   24 1   
    27   23   30 1   
    28   23   31 1   
    29   24   25 1   
    30   24   32 1   
    31   24   33 1   
    32   25   26 1   
    33   25   34 1   
    34   25   35 1   
    35   26   27 1   
    36   26   36 1   
    37   26   37 1   
    38   27   38 1   
    39   27   39 1   
    40   27   40 1   
    41   41   42 1   
    42   41   49 1   
    43   42   43 1   
    44   42   45 1   
    45   42   50 1   
    46   43   44 2   
    47   43   53 1   
    48   45   46 1   
    49   45   51 1   
    50   45   52 1   
    51   46   47 1   
    52   46   48 1   
    53   53   54 1   
    54   53   57 1   
    55   54   55 1   
    56   54   58 1   
    57   54   59 1   
    58   55   56 2   
    59   55   60 1   
    60   60   61 1   
    61   60   68 1   
    62   61   62 1   
    63   61   64 1   
    64   61   69 1   
    65   62   63 2   
    66   62   74 1   
    67   64   65 1   
    68   64   70 1   
    69   64   71 1   
    70   65   66 1   
    71   65   67 2   
    72   66   72 1   
    73   66   73 1   
    74   74   75 1   
    75   74   78 1   
    76   75   76 1   
    77   75   79 1   
    78   75   80 1   
    79   76   77 2   
    80   76   81 1   
    81   81   82 1   
    82   81   93 1   
    83   82   83 1   
    84   82   85 1   
    85   82   94 1   
    86   83   84 2   
    87   83  102 1   
    88   85   86 1   
    89   85   95 1   
    90   85   96 1   
    91   86   87 ar  
    92   86   88 ar  
    93   87   89 ar  
    94   87   97 1   
    95   88   90 ar  
    96   88   98 1   
    97   89   91 ar  
    98   89   99 1   
    99   90   91 ar  
   100   90  100 1   
   101   91   92 1   
   102   92  101 1   
   103  102  103 1   
   104  102  110 1   
   105  103  104 1   
   106  103  106 1   
   107  103  111 1   
   108  104  105 2   
   109  104  121 1   
   110  106  107 1   
   111  106  108 1   
   112  106  112 1   
   113  107  109 1   
   114  107  113 1   
   115  107  114 1   
   116  108  115 1   
   117  108  116 1   
   118  108  117 1   
   119  109  118 1   
   120  109  119 1   
   121  109  120 1   
   122  121  122 1   
   123  121  127 1   
   124  122  123 1   
   125  122  125 1   
   126  122  128 1   
   127  123  124 2   
   128  123  132 1   
   129  125  126 1   
   130  125  129 1   
   131  125  130 1   
   132  126  131 1   
   133  132  133 1   
   134  132  137 1   
   135  133  134 1   
   136  133  136 1   
   137  133  138 1   
   138  134  135 2   
   139  134  142 1   
   140  136  139 1   
   141  136  140 1   
   142  136  141 1   
   143  142  143 1   
   144  142  147 1   
   145  143  144 1   
   146  143  146 1   
   147  143  148 1   
   148  144  145 2   
   149  144  152 1   
   150  146  149 1   
   151  146  150 1   
   152  146  151 1   
   153  152  153 1   
   154  152  161 1   
   155  153  154 1   
   156  153  156 1   
   157  153  162 1   
   158  154  155 2   
   159  154  167 1   
   160  156  157 1   
   161  156  163 1   
   162  156  164 1   
   163  157  158 1   
   164  157  165 1   
   165  157  166 1   
   166  158  159 1   
   167  158  160 1   
   168  167  168 1   
   169  167  172 1   
   170  168  169 1   
   171  168  170 1   
   172  168  171 1   
   173  174  175 1   
   174  174  176 1   
   175  177  178 1   
   176  177  179 1   
   177  180  181 1   
   178  180  182 1   
@<TRIPOS>SUBSTRUCTURE
     1 MOL         1 TEMP              0 ****  ****    0 ROOT
