@<TRIPOS>MOLECULE
MOL
  192   187     1     0     0
SMALL
resp


@<TRIPOS>ATOM
      1 C1          9.3160    0.6070    1.9530 c3        1 MOL     -0.436098
      2 C2          8.0940    0.6480    0.9790 c         1 MOL      0.656594
      3 O1          7.3910    1.6000    0.8370 o         1 MOL     -0.567265
      4 H1          9.1200   -0.1090    2.7510 hc        1 MOL      0.106725
      5 H2         10.2080    0.3050    1.4050 hc        1 MOL      0.106725
      6 H3          9.4710    1.5960    2.3840 hc        1 MOL      0.106725
      7 N1          8.0000   -0.4560    0.2490 n         1 MOL     -0.405507
      8 C3          7.1650   -0.5070   -0.9440 c3        1 MOL      0.049971
      9 C4          6.5240   -1.9160   -1.1470 c         1 MOL      0.309290
     10 O2          6.0790   -2.3350   -2.2620 o         1 MOL     -0.394739
     11 C5          7.8260   -0.0800   -2.3010 c3        1 MOL     -0.173892
     12 C6          9.1780   -0.7060   -2.7020 c         1 MOL      0.726442
     13 O3          9.7040   -0.2910   -3.7670 o         1 MOL     -0.677036
     14 O4          9.7120   -1.5850   -1.9800 o         1 MOL     -0.677036
     15 H4          8.7510   -1.1340    0.2720 hn        1 MOL      0.207240
     16 H5          6.4020    0.2660   -0.8520 h1        1 MOL      0.120023
     17 H6          7.8960    1.0020   -2.2330 hc        1 MOL      0.061123
     18 H7          7.1240   -0.3500   -3.0920 hc        1 MOL      0.061123
     19 N2          6.3330   -2.5850    0.0120 n         1 MOL     -0.236425
     20 C7          5.6230   -3.9010    0.0420 c3        1 MOL     -0.009301
     21 C8          4.1140   -3.8680   -0.4240 c         1 MOL      0.494975
     22 O5          3.8190   -4.7460   -1.2380 o         1 MOL     -0.531742
     23 C9          5.6810   -4.6190    1.4410 c3        1 MOL     -0.236762
     24 C10         7.0860   -4.9400    1.8670 c3        1 MOL      0.132881
     25 C11         7.1050   -5.8000    3.1370 c3        1 MOL     -0.350261
     26 C12         8.4800   -6.3980    3.4200 c3        1 MOL      0.032157
     27 N3          9.5160   -5.3590    3.8940 n4        1 MOL     -0.511125
     28 H8          6.6830   -2.2050    0.8760 hn        1 MOL      0.142606
     29 H9          6.1370   -4.5040   -0.7000 h1        1 MOL      0.099691
     30 H10         5.1120   -5.5350    1.2530 hc        1 MOL      0.110151
     31 H11         5.2490   -3.9790    2.1960 hc        1 MOL      0.110151
     32 H12         7.7230   -4.0590    1.9780 hc        1 MOL      0.026261
     33 H13         7.6670   -5.4160    1.0790 hc        1 MOL      0.026261
     34 H14         6.3410   -6.5410    2.8830 hc        1 MOL      0.124710
     35 H15         6.7540   -5.2780    4.0320 hc        1 MOL      0.124710
     36 H16         8.8300   -6.9070    2.5260 hx        1 MOL      0.123599
     37 H17         8.4550   -7.2090    4.1490 hx        1 MOL      0.123599
     38 H18        10.3510   -5.8200    4.2410 hn        1 MOL      0.356372
     39 H19         9.8580   -4.7600    3.1520 hn        1 MOL      0.356372
     40 H20         9.0230   -4.9130    4.6550 hn        1 MOL      0.356372
     41 N4          3.2400   -2.9400   -0.0420 n         1 MOL     -0.461313
     42 C13         3.5600   -1.8860    0.9100 c3        1 MOL      0.188109
     43 C14         3.6950   -0.5260    0.1840 c         1 MOL     -0.009160
     44 O6          3.5890   -0.4870   -1.0420 o         1 MOL     -0.318944
     45 C15         2.4520   -1.8400    1.9710 c3        1 MOL     -0.056339
     46 C16         1.0480   -1.8340    1.4730 c         1 MOL      0.657684
     47 O7          0.7660   -1.2830    0.3590 o         1 MOL     -0.654379
     48 O8          0.2490   -2.5460    2.1480 o         1 MOL     -0.654379
     49 H21         2.4770   -2.7890   -0.6820 hn        1 MOL      0.382914
     50 H22         4.4930   -2.0430    1.4380 h1        1 MOL      0.080374
     51 H23         2.7200   -0.9750    2.5710 hc        1 MOL     -0.027297
     52 H24         2.6390   -2.7350    2.5700 hc        1 MOL     -0.027297
     53 N5          3.8980    0.5910    0.8370 n         1 MOL     -0.269012
     54 C17         4.1250    1.9250    0.3640 c3        1 MOL     -0.214866
     55 C18         2.9710    2.5210   -0.4080 c         1 MOL      0.691568
     56 O9          1.8330    2.0160   -0.4320 o         1 MOL     -0.685078
     57 H25         3.9980    0.4500    1.8340 hn        1 MOL      0.266943
     58 H26         5.0200    1.9370   -0.2630 h1        1 MOL      0.138412
     59 H27         4.3370    2.6000    1.1860 h1        1 MOL      0.138412
     60 N6          3.2560    3.6560   -1.0580 n         1 MOL     -0.565681
     61 C19         2.3750    4.4940   -1.9370 c3        1 MOL      0.495281
     62 C20         2.9920    5.9540   -2.0140 c         1 MOL      0.306256
     63 O10         4.1540    6.2200   -1.7670 o         1 MOL     -0.475636
     64 C21         2.3950    3.8440   -3.3690 c3        1 MOL     -0.269309
     65 C22         1.7060    2.4700   -3.4670 c         1 MOL      0.711790
     66 O11         2.2930    1.5640   -4.1490 o         1 MOL     -0.668717
     67 O12         0.5810    2.3710   -2.9750 o         1 MOL     -0.668717
     68 H28         4.2210    3.9190   -0.9550 hn        1 MOL      0.271317
     69 H29         1.3590    4.3630   -1.5720 h1        1 MOL     -0.072922
     70 H30         3.4260    3.7680   -3.7040 hc        1 MOL      0.060701
     71 H31         1.8440    4.4770   -4.0650 hc        1 MOL      0.060701
     72 N7          2.1640    7.0260   -2.1520 n         1 MOL     -0.305951
     73 C23         0.6840    7.0280   -2.2280 c3        1 MOL     -0.218157
     74 C24        -0.0860    6.6730   -0.9420 c         1 MOL      0.628482
     75 O13         0.2930    7.2270    0.0940 o         1 MOL     -0.532063
     76 H32         2.5800    7.9400   -2.2300 hn        1 MOL      0.309274
     77 H33         0.3690    6.4010   -3.0690 h1        1 MOL      0.093499
     78 H34         0.4360    8.0760   -2.3600 h1        1 MOL      0.093499
     79 N8         -1.0080    5.6970   -0.9300 n         1 MOL     -0.597894
     80 C25        -1.7720    5.2730    0.2530 c3        1 MOL      0.110402
     81 C26        -1.2470    3.9620    0.7460 c         1 MOL      0.834104
     82 O14        -0.8510    3.0910   -0.0190 o         1 MOL     -0.650997
     83 C27        -3.2490    5.2300   -0.1160 c3        1 MOL      0.262741
     84 C28        -4.1110    5.0880    1.1450 c3        1 MOL     -0.400843
     85 O15        -3.6260    4.2000   -1.0210 oh        1 MOL     -0.617551
     86 H35        -1.3070    5.2810   -1.8020 hn        1 MOL      0.334479
     87 H36        -1.6880    5.9740    1.0880 h1        1 MOL      0.043389
     88 H37        -3.4870    6.2110   -0.5300 h1        1 MOL      0.037321
     89 H38        -4.5660    4.2950   -1.1750 ho        1 MOL      0.412647
     90 H39        -3.7720    5.6820    1.9900 hc        1 MOL      0.110385
     91 H40        -5.1690    5.2460    0.9250 hc        1 MOL      0.110385
     92 H41        -4.0780    4.0360    1.4350 hc        1 MOL      0.110385
     93 N9         -1.1700    3.8830    2.0630 n         1 MOL     -0.700487
     94 C29        -0.6400    2.7830    2.8510 c3        1 MOL     -0.026791
     95 C30        -1.2700    1.4560    2.3850 c         1 MOL      0.402200
     96 O16        -0.7130    0.8450    1.5500 o         1 MOL     -0.509919
     97 C31         0.8730    2.8690    2.9400 c3        1 MOL      0.113810
     98 C32         1.4380    4.2260    3.3870 c3        1 MOL      0.093380
     99 C33         1.5650    1.7880    3.7330 c3        1 MOL     -0.524430
    100 C34         2.6750    4.6740    2.4990 c3        1 MOL     -0.280284
    101 H42        -1.5930    4.6620    2.5500 hn        1 MOL      0.359423
    102 H43        -1.0500    2.9100    3.8560 h1        1 MOL      0.076847
    103 H44         1.1550    2.7090    1.8970 hc        1 MOL      0.157190
    104 H45         1.6300    4.2120    4.4540 hc        1 MOL     -0.017116
    105 H46         0.6520    4.9750    3.3180 hc        1 MOL     -0.017116
    106 H47         1.3390    1.9240    4.7920 hc        1 MOL      0.142389
    107 H48         1.1450    0.8090    3.4820 hc        1 MOL      0.142389
    108 H49         2.5850    1.7150    3.3420 hc        1 MOL      0.142389
    109 H50         3.5190    4.0070    2.6840 hc        1 MOL      0.078546
    110 H51         2.3270    4.6240    1.4650 hc        1 MOL      0.078546
    111 H52         2.9170    5.7130    2.7070 hc        1 MOL      0.078546
    112 N10        -2.2870    0.9740    3.0680 n         1 MOL     -0.090835
    113 C35        -2.7780   -0.4030    3.0280 c3        1 MOL     -0.264991
    114 C36        -4.2860   -0.4610    2.6250 c         1 MOL      0.710868
    115 O17        -4.9610   -1.4820    2.6740 o         1 MOL     -0.619339
    116 C37        -2.4480   -1.2240    4.2630 c3        1 MOL      0.429226
    117 C38        -3.0620   -0.6870    5.5270 c3        1 MOL     -0.361890
    118 O18        -1.0660   -1.2310    4.5070 oh        1 MOL     -0.600452
    119 H53        -2.6530    1.5740    3.7970 hn        1 MOL      0.169889
    120 H54        -2.2820   -0.8990    2.1870 h1        1 MOL      0.080409
    121 H55        -2.7960   -2.2570    4.2420 h1        1 MOL      0.030887
    122 H56        -0.6160   -1.6560    3.7770 ho        1 MOL      0.343360
    123 H57        -2.7230    0.2960    5.8580 hc        1 MOL      0.087977
    124 H58        -4.1380   -0.6320    5.4050 hc        1 MOL      0.087977
    125 H59        -2.8280   -1.3350    6.3770 hc        1 MOL      0.087977
    126 N11        -4.8890    0.6750    2.2210 n         1 MOL     -0.401361
    127 C39        -6.2500    0.6550    1.6710 c3        1 MOL     -0.229784
    128 C40        -6.2240   -0.1060    0.3760 c         1 MOL      0.481626
    129 O19        -5.7960    0.4270   -0.6320 o         1 MOL     -0.485371
    130 C41        -6.7460    2.0780    1.4060 c3        1 MOL      0.487433
    131 C42        -8.0960    2.1700    0.6510 c3        1 MOL     -0.625084
    132 O20        -6.9890    2.6290    2.6840 oh        1 MOL     -0.667638
    133 H60        -4.3570    1.4900    1.9680 hn        1 MOL      0.204040
    134 H61        -6.9840    0.1420    2.2880 h1        1 MOL      0.101691
    135 H62        -6.0160    2.7350    0.9350 h1        1 MOL      0.031606
    136 H63        -7.6330    2.1240    3.1730 ho        1 MOL      0.408048
    137 H64        -8.2640    3.2420    0.6680 hc        1 MOL      0.165620
    138 H65        -7.8700    1.8870   -0.3740 hc        1 MOL      0.165620
    139 H66        -8.8190    1.4810    1.0890 hc        1 MOL      0.165620
    140 N12        -6.8770   -1.2810    0.3380 n         1 MOL     -0.153257
    141 C43        -7.0440   -2.1500   -0.8140 c3        1 MOL     -0.005260
    142 C44        -5.7930   -2.2750   -1.6860 c         1 MOL      0.529837
    143 O21        -5.6610   -1.7340   -2.7750 o         1 MOL     -0.515737
    144 C45        -8.3660   -1.8910   -1.6450 c3        1 MOL     -0.589184
    145 C46        -9.7030   -1.6570   -0.9160 c3        1 MOL      0.017862
    146 C47       -10.2920   -2.8850   -0.3420 c3        1 MOL     -0.249796
    147 C48       -11.5860   -2.5150    0.5260 c3        1 MOL      0.099847
    148 N13       -12.3000   -3.7020    1.1050 n4        1 MOL     -0.123460
    149 H67        -7.3140   -1.6220    1.1770 hn        1 MOL      0.238245
    150 H68        -7.1880   -3.1130   -0.3060 h1        1 MOL      0.060298
    151 H69        -8.5150   -2.7340   -2.3280 hc        1 MOL      0.237290
    152 H70        -8.3430   -0.9590   -2.2090 hc        1 MOL      0.237290
    153 H71       -10.4640   -1.1900   -1.5570 hc        1 MOL      0.054186
    154 H72        -9.3330   -1.0190   -0.1080 hc        1 MOL      0.054186
    155 H73        -9.5120   -3.3990    0.2140 hc        1 MOL      0.116334
    156 H74       -10.6610   -3.4540   -1.1940 hc        1 MOL      0.116334
    157 H75       -12.1680   -1.8560   -0.1130 hx        1 MOL      0.037197
    158 H76       -11.1800   -1.8870    1.3240 hx        1 MOL      0.037197
    159 H77       -11.6170   -4.3840    1.4030 hn        1 MOL      0.173035
    160 H78       -12.7540   -3.4760    1.9790 hn        1 MOL      0.173035
    161 H79       -12.8020   -4.2910    0.4600 hn        1 MOL      0.173035
    162 N14        -4.7340   -2.9040   -1.1440 n         1 MOL     -0.540229
    163 C49        -3.4320   -2.9910   -1.8120 c3        1 MOL      0.428769
    164 C50        -2.2610   -2.6030   -0.8210 c         1 MOL      0.252239
    165 O22        -1.6520   -1.5240   -1.0570 o         1 MOL     -0.557658
    166 C51        -3.1280   -4.4570   -2.3660 c3        1 MOL     -0.232691
    167 C52        -3.7110   -4.4360   -3.7920 c3        1 MOL     -0.269764
    168 C53        -3.9940   -5.7860   -4.5030 c         1 MOL      0.746912
    169 O23        -4.7410   -6.5650   -3.8930 o         1 MOL     -0.644412
    170 O24        -3.7400   -5.9870   -5.6890 o         1 MOL     -0.644412
    171 H80        -4.8810   -3.3990   -0.2780 hn        1 MOL      0.260425
    172 H81        -3.3410   -2.3050   -2.6510 h1        1 MOL      0.087449
    173 H82        -3.4830   -5.2050   -1.6580 hc        1 MOL      0.087039
    174 H83        -2.0570   -4.6020   -2.4390 hc        1 MOL      0.087039
    175 H84        -3.0550   -3.8300   -4.4240 hc        1 MOL      0.073996
    176 H85        -4.6270   -3.8470   -3.8420 hc        1 MOL      0.073996
    177 N15        -1.9850   -3.1950    0.3390 n         1 MOL     -0.239261
    178 C54        -2.3960   -4.4780    0.8720 c3        1 MOL     -0.138323
    179 H86        -3.2020   -4.3300    1.5900 h1        1 MOL      0.067345
    180 H87        -2.7460   -5.1140    0.0590 h1        1 MOL      0.067345
    181 H88        -1.5500   -4.9530    1.3690 h1        1 MOL      0.067345
    182 H89        -1.4450   -2.6520    0.9920 hn        1 MOL      0.330821
    183 Ca1        -0.2610    0.7270   -1.0280 Ca        1 MOL      1.836567
    184 O25        -1.2240    0.1600   -3.8360 oh        1 MOL     -0.880897
    185 H90        -1.3070   -0.6490   -4.3320 ho        1 MOL      0.412731
    186 H91        -0.8730    0.7860   -4.4640 ho        1 MOL      0.412731
    187 O26         1.3860   -0.5190   -2.8360 oh        1 MOL     -0.880897
    188 H92         1.5690    0.2200   -3.4230 ho        1 MOL      0.412731
    189 H93         2.1560   -1.0730   -2.8960 ho        1 MOL      0.412731
    190 O27        -2.8060    1.3820   -1.0270 oh        1 MOL     -0.880897
    191 H94        -3.6890    1.0180   -0.9330 ho        1 MOL      0.412731
    192 H95        -2.9540    2.3050   -1.2360 ho        1 MOL      0.412731
@<TRIPOS>BOND
     1    1    2 1   
     2    1    4 1   
     3    1    5 1   
     4    1    6 1   
     5    2    3 2   
     6    2    7 1   
     7    7    8 1   
     8    7   15 1   
     9    8    9 1   
    10    8   11 1   
    11    8   16 1   
    12    9   10 2   
    13    9   19 1   
    14   11   12 1   
    15   11   17 1   
    16   11   18 1   
    17   12   13 1   
    18   12   14 1   
    19   19   20 1   
    20   19   28 1   
    21   20   21 1   
    22   20   23 1   
    23   20   29 1   
    24   21   22 2   
    25   21   41 1   
    26   23   24 1   
    27   23   30 1   
    28   23   31 1   
    29   24   25 1   
    30   24   32 1   
    31   24   33 1   
    32   25   26 1   
    33   25   34 1   
    34   25   35 1   
    35   26   27 1   
    36   26   36 1   
    37   26   37 1   
    38   27   38 1   
    39   27   39 1   
    40   27   40 1   
    41   41   42 1   
    42   41   49 1   
    43   42   43 1   
    44   42   45 1   
    45   42   50 1   
    46   43   44 2   
    47   43   53 1   
    48   45   46 1   
    49   45   51 1   
    50   45   52 1   
    51   46   47 1   
    52   46   48 1   
    53   53   54 1   
    54   53   57 1   
    55   54   55 1   
    56   54   58 1   
    57   54   59 1   
    58   55   56 2   
    59   55   60 1   
    60   60   61 1   
    61   60   68 1   
    62   61   62 1   
    63   61   64 1   
    64   61   69 1   
    65   62   63 2   
    66   62   72 1   
    67   64   65 1   
    68   64   70 1   
    69   64   71 1   
    70   65   66 1   
    71   65   67 1   
    72   72   73 1   
    73   72   76 1   
    74   73   74 1   
    75   73   77 1   
    76   73   78 1   
    77   74   75 2   
    78   74   79 1   
    79   79   80 1   
    80   79   86 1   
    81   80   81 1   
    82   80   83 1   
    83   80   87 1   
    84   81   82 2   
    85   81   93 1   
    86   83   84 1   
    87   83   85 1   
    88   83   88 1   
    89   84   90 1   
    90   84   91 1   
    91   84   92 1   
    92   85   89 1   
    93   93   94 1   
    94   93  101 1   
    95   94   95 1   
    96   94   97 1   
    97   94  102 1   
    98   95   96 2   
    99   95  112 1   
   100   97   98 1   
   101   97   99 1   
   102   97  103 1   
   103   98  100 1   
   104   98  104 1   
   105   98  105 1   
   106   99  106 1   
   107   99  107 1   
   108   99  108 1   
   109  100  109 1   
   110  100  110 1   
   111  100  111 1   
   112  112  113 1   
   113  112  119 1   
   114  113  114 1   
   115  113  116 1   
   116  113  120 1   
   117  114  115 2   
   118  114  126 1   
   119  116  117 1   
   120  116  118 1   
   121  116  121 1   
   122  117  123 1   
   123  117  124 1   
   124  117  125 1   
   125  118  122 1   
   126  126  127 1   
   127  126  133 1   
   128  127  128 1   
   129  127  130 1   
   130  127  134 1   
   131  128  129 2   
   132  128  140 1   
   133  130  131 1   
   134  130  132 1   
   135  130  135 1   
   136  131  137 1   
   137  131  138 1   
   138  131  139 1   
   139  132  136 1   
   140  140  141 1   
   141  140  149 1   
   142  141  142 1   
   143  141  144 1   
   144  141  150 1   
   145  142  143 2   
   146  142  162 1   
   147  144  145 1   
   148  144  151 1   
   149  144  152 1   
   150  145  146 1   
   151  145  153 1   
   152  145  154 1   
   153  146  147 1   
   154  146  155 1   
   155  146  156 1   
   156  147  148 1   
   157  147  157 1   
   158  147  158 1   
   159  148  159 1   
   160  148  160 1   
   161  148  161 1   
   162  162  163 1   
   163  162  171 1   
   164  163  164 1   
   165  163  166 1   
   166  163  172 1   
   167  164  165 2   
   168  164  177 1   
   169  166  167 1   
   170  166  173 1   
   171  166  174 1   
   172  167  168 1   
   173  167  175 1   
   174  167  176 1   
   175  168  169 1   
   176  168  170 1   
   177  177  178 1   
   178  177  182 1   
   179  178  179 1   
   180  178  180 1   
   181  178  181 1   
   182  184  185 1   
   183  184  186 1   
   184  187  188 1   
   185  187  189 1   
   186  190  191 1   
   187  190  192 1   
@<TRIPOS>SUBSTRUCTURE
     1 MOL         1 TEMP              0 ****  ****    0 ROOT
