@<TRIPOS>MOLECULE
MOL
  192   187     1     0     0
SMALL
resp


@<TRIPOS>ATOM
      1 C1          1.3930    8.0150   -1.5970 c3        1 MOL     -0.208973
      2 C2          1.7950    6.5420   -1.5340 c         1 MOL      0.617090
      3 O1          1.8140    5.8670   -2.5970 o         1 MOL     -0.603728
      4 H1          0.7370    8.2480   -0.7590 hc        1 MOL      0.046479
      5 H2          2.2850    8.6380   -1.5440 hc        1 MOL      0.046479
      6 H3          0.8680    8.2090   -2.5330 hc        1 MOL      0.046479
      7 N1          2.0800    6.0050   -0.3570 n         1 MOL     -0.347057
      8 C3          2.2100    4.5650   -0.1360 c3        1 MOL     -0.012556
      9 C4          0.8980    3.9490    0.3750 c         1 MOL      0.396093
     10 O2          0.9040    2.7860    0.6790 o         1 MOL     -0.479686
     11 C5          3.4490    4.1850    0.7810 c3        1 MOL     -0.263694
     12 C6          3.7230    5.1160    2.0330 c         1 MOL      0.731432
     13 O3          4.3230    4.6770    3.0180 o         1 MOL     -0.729201
     14 O4          3.4350    6.3650    1.9760 o         1 MOL     -0.729201
     15 H4          2.2200    6.6420    0.4230 hn        1 MOL      0.220684
     16 H5          2.4520    3.9740   -1.0260 h1        1 MOL      0.142485
     17 H6          4.3320    4.3260    0.1600 hc        1 MOL      0.072217
     18 H7          3.3730    3.1820    1.1990 hc        1 MOL      0.072217
     19 N2         -0.2990    4.5680    0.3420 n         1 MOL     -0.375905
     20 C7         -1.6060    3.9730    0.6970 c3        1 MOL      0.488272
     21 C8         -2.4850    3.6360   -0.5660 c         1 MOL      0.372859
     22 O5         -2.4020    4.4170   -1.5310 o         1 MOL     -0.550842
     23 C9         -2.2500    4.7920    1.8450 c3        1 MOL     -0.597153
     24 C10        -1.4160    4.8480    3.1300 c3        1 MOL      0.200345
     25 C11        -2.1020    5.7020    4.1630 c3        1 MOL      0.103094
     26 C12        -1.7700    5.4160    5.6450 c3        1 MOL     -0.252644
     27 N3         -0.4950    6.0430    6.0420 n4        1 MOL     -0.200719
     28 H8         -0.3940    5.5260    0.0420 hn        1 MOL      0.203475
     29 H9         -1.3870    3.0510    1.2360 h1        1 MOL     -0.046277
     30 H10        -3.2050    4.3300    2.0880 hc        1 MOL      0.151356
     31 H11        -2.4380    5.7680    1.4100 hc        1 MOL      0.151356
     32 H12        -0.4510    5.2970    2.8940 hc        1 MOL     -0.004289
     33 H13        -1.2850    3.8680    3.6000 hc        1 MOL     -0.004289
     34 H14        -3.1780    5.5580    4.0500 hc        1 MOL      0.006873
     35 H15        -2.0430    6.7690    3.9230 hc        1 MOL      0.006873
     36 H16        -1.7090    4.3310    5.6830 hx        1 MOL      0.163502
     37 H17        -2.5780    5.8290    6.2510 hx        1 MOL      0.163502
     38 H18        -0.2330    5.7710    6.9880 hn        1 MOL      0.294853
     39 H19         0.3140    5.9500    5.4630 hn        1 MOL      0.294853
     40 H20        -0.6960    7.0270    6.0580 hn        1 MOL      0.294853
     41 N4         -3.1910    2.4870   -0.6570 n         1 MOL     -0.412604
     42 C13        -3.3190    1.2510    0.1750 c3        1 MOL      0.072709
     43 C14        -3.8030    1.6420    1.5800 c         1 MOL      0.521833
     44 O6         -3.0430    1.7320    2.4710 o         1 MOL     -0.554530
     45 C15        -2.0230    0.3660    0.0810 c3        1 MOL     -0.036024
     46 C16        -1.6390    0.0870   -1.3200 c         1 MOL      0.770410
     47 O7         -2.4210    0.2230   -2.3100 o         1 MOL     -0.782885
     48 O8         -0.5870   -0.4860   -1.6400 o         1 MOL     -0.782885
     49 H21        -3.7550    2.3920   -1.4890 hn        1 MOL      0.294707
     50 H22        -4.1540    0.7150   -0.2710 h1        1 MOL      0.008546
     51 H23        -2.2520   -0.5090    0.6990 hc        1 MOL      0.054470
     52 H24        -1.2230    0.8680    0.6200 hc        1 MOL      0.054470
     53 N5         -5.0660    1.9880    1.7950 n         1 MOL     -0.425044
     54 C17        -6.0450    1.9580    0.7000 c3        1 MOL      0.021268
     55 C18        -7.4680    2.3100    1.0910 c         1 MOL      0.534497
     56 O9         -7.6170    3.0310    2.0990 o         1 MOL     -0.553658
     57 H25        -5.3500    2.2970    2.7160 hn        1 MOL      0.311031
     58 H26        -6.2590    0.9690    0.2950 h1        1 MOL      0.040486
     59 H27        -5.7230    2.4830   -0.2010 h1        1 MOL      0.040486
     60 N6         -8.4860    1.8270    0.3070 n         1 MOL     -0.376730
     61 C19        -8.4600    1.0730   -0.9720 c3        1 MOL     -0.146801
     62 C20        -8.3050   -0.4240   -0.7700 c         1 MOL      0.600440
     63 O10        -8.9190   -1.0240    0.0960 o         1 MOL     -0.473928
     64 C21        -9.7060    1.4680   -1.7780 c3        1 MOL     -0.060708
     65 C22       -11.0660    1.5590   -1.1180 c         1 MOL      0.668668
     66 O11       -12.0690    1.0350   -1.6460 o         1 MOL     -0.636928
     67 O12       -11.1570    2.2460   -0.0140 o         1 MOL     -0.636928
     68 H28        -9.4300    2.0170    0.5900 hn        1 MOL      0.256228
     69 H29        -7.5930    1.4390   -1.5320 h1        1 MOL      0.066446
     70 H30        -9.7300    0.9390   -2.7320 hc        1 MOL      0.017082
     71 H31        -9.6170    2.4860   -2.1480 hc        1 MOL      0.017082
     72 N7         -7.4150   -1.0240   -1.5760 n         1 MOL     -0.473685
     73 C23        -7.0750   -2.4120   -1.4140 c3        1 MOL      0.031389
     74 C24        -6.1290   -2.8110   -0.3060 c         1 MOL      0.503867
     75 O13        -5.6890   -1.9500    0.5090 o         1 MOL     -0.503532
     76 H32        -6.8710   -0.5000   -2.2450 hn        1 MOL      0.293319
     77 H33        -6.8290   -2.8860   -2.3650 h1        1 MOL      0.043968
     78 H34        -8.0060   -2.8930   -1.1150 h1        1 MOL      0.043968
     79 N8         -5.7510   -4.0520   -0.2650 n         1 MOL     -0.409044
     80 C25        -4.7770   -4.5130    0.7460 c3        1 MOL      0.131059
     81 C26        -3.3660   -3.9100    0.7270 c         1 MOL      0.134692
     82 O14        -2.7450   -3.6030   -0.2910 o         1 MOL     -0.374937
     83 C27        -4.7240   -6.0620    0.7220 c3        1 MOL      0.199165
     84 C28        -4.0390   -6.6220   -0.5200 c3        1 MOL     -0.100279
     85 O15        -6.0250   -6.6380    0.6390 oh        1 MOL     -0.617356
     86 H35        -6.1260   -4.7030   -0.9450 hn        1 MOL      0.290032
     87 H36        -5.2100   -4.1980    1.6980 h1        1 MOL      0.114621
     88 H37        -4.0520   -6.3580    1.5280 h1        1 MOL      0.024050
     89 H38        -5.8910   -7.5630    0.4200 ho        1 MOL      0.411923
     90 H39        -2.9850   -6.3470   -0.5460 hc        1 MOL      0.030038
     91 H40        -4.1400   -7.6970   -0.6650 hc        1 MOL      0.030038
     92 H41        -4.4000   -6.1210   -1.4130 hc        1 MOL      0.030038
     93 N9         -2.7420   -3.7390    1.9440 n         1 MOL     -0.184619
     94 C29        -1.3280   -3.4260    2.0460 c3        1 MOL     -0.096199
     95 C30        -0.4420   -4.7100    1.6010 c         1 MOL      0.509176
     96 O16        -0.8170   -5.8260    1.8910 o         1 MOL     -0.528127
     97 C31        -1.0110   -3.0230    3.4900 c3        1 MOL      0.236193
     98 C32        -1.4620   -1.5270    3.8270 c3        1 MOL      0.123905
     99 C33         0.4220   -3.1850    3.9560 c3        1 MOL     -0.587247
    100 C34        -2.9580   -1.4560    4.1980 c3        1 MOL      0.032362
    101 H42        -3.2020   -4.0290    2.7950 hn        1 MOL      0.190192
    102 H43        -1.0620   -2.6340    1.3510 h1        1 MOL      0.046884
    103 H44        -1.4950   -3.7170    4.1750 hc        1 MOL      0.018362
    104 H45        -1.2100   -0.8770    2.9930 hc        1 MOL     -0.032828
    105 H46        -0.9320   -1.1440    4.6930 hc        1 MOL     -0.032828
    106 H47         0.9790   -2.5740    3.2550 hc        1 MOL      0.131282
    107 H48         0.5190   -2.9530    5.0120 hc        1 MOL      0.131282
    108 H49         0.6640   -4.2470    3.8390 hc        1 MOL      0.131282
    109 H50        -3.6090   -1.6750    3.3430 hc        1 MOL     -0.019827
    110 H51        -3.1830   -2.1390    5.0220 hc        1 MOL     -0.019827
    111 H52        -3.2110   -0.4590    4.5620 hc        1 MOL     -0.019827
    112 N10         0.6700   -4.4590    0.9100 n         1 MOL     -0.295476
    113 C35         1.7360   -5.4990    0.4430 c3        1 MOL     -0.243497
    114 C36         3.2160   -5.0180    0.6400 c         1 MOL      0.532233
    115 O17         4.1320   -5.7770    0.2760 o         1 MOL     -0.529309
    116 C37         1.5310   -5.9640   -1.0030 c3        1 MOL      0.422085
    117 C38         1.7080   -4.9240   -2.0740 c3        1 MOL     -0.213892
    118 O18         0.2670   -6.5700   -1.2200 oh        1 MOL     -0.638839
    119 H53         0.7850   -3.5010    0.6090 hn        1 MOL      0.276274
    120 H54         1.7490   -6.3840    1.0670 h1        1 MOL      0.152870
    121 H55         2.2430   -6.7580   -1.2010 h1        1 MOL      0.010064
    122 H56         0.0020   -7.1510   -0.4920 ho        1 MOL      0.385803
    123 H57         0.9120   -4.1840   -1.9680 hc        1 MOL      0.078918
    124 H58         2.7200   -4.5230   -2.1430 hc        1 MOL      0.078918
    125 H59         1.5520   -5.4870   -3.0030 hc        1 MOL      0.078918
    126 N11         3.4590   -3.8940    1.2870 n         1 MOL     -0.615001
    127 C39         4.7630   -3.2840    1.4860 c3        1 MOL      0.196494
    128 C40         5.5150   -2.8290    0.2530 c         1 MOL      0.331943
    129 O19         5.0280   -3.1310   -0.8840 o         1 MOL     -0.385338
    130 C41         5.6350   -4.2230    2.3040 c3        1 MOL      0.375907
    131 C42         4.9740   -4.7950    3.6010 c3        1 MOL     -0.386727
    132 O20         6.7190   -3.4710    2.8720 oh        1 MOL     -0.642688
    133 H60         2.6270   -3.3670    1.5060 hn        1 MOL      0.341973
    134 H61         4.6830   -2.4440    2.1870 h1        1 MOL      0.029149
    135 H62         5.9970   -5.1310    1.8240 h1        1 MOL      0.075057
    136 H63         6.1950   -3.0380    3.5530 ho        1 MOL      0.360011
    137 H64         4.3400   -5.6650    3.4120 hc        1 MOL      0.103792
    138 H65         5.7190   -5.1580    4.3140 hc        1 MOL      0.103792
    139 H66         4.3770   -4.0110    4.0670 hc        1 MOL      0.103792
    140 N12         6.6820   -2.1250    0.3550 n         1 MOL     -0.280281
    141 C43         7.5940   -1.7530   -0.7350 c3        1 MOL     -0.183728
    142 C44         7.1120   -0.6430   -1.6720 c         1 MOL      0.523941
    143 O21         7.6330   -0.5790   -2.7880 o         1 MOL     -0.509669
    144 C45         9.0320   -1.6000   -0.2550 c3        1 MOL     -0.026748
    145 C46         9.2640   -0.2870    0.5620 c3        1 MOL      0.029748
    146 C47        10.6510   -0.2100    1.0570 c3        1 MOL      0.029280
    147 C48        10.6960    0.8480    2.1500 c3        1 MOL     -0.240822
    148 N13        10.1100    0.4080    3.4310 n4        1 MOL     -0.266017
    149 H67         7.0870   -2.0210    1.2760 hn        1 MOL      0.203288
    150 H68         7.7300   -2.6240   -1.3820 h1        1 MOL      0.161439
    151 H69         9.7390   -1.5570   -1.0900 hc        1 MOL      0.053350
    152 H70         9.3520   -2.5090    0.2620 hc        1 MOL      0.053350
    153 H71         8.5290   -0.2920    1.3740 hc        1 MOL      0.022863
    154 H72         9.1450    0.5890   -0.0830 hc        1 MOL      0.022863
    155 H73        11.4070   -0.0770    0.2730 hc        1 MOL      0.036523
    156 H74        10.9390   -1.1910    1.4280 hc        1 MOL      0.036523
    157 H75        10.1760    1.7510    1.8380 hx        1 MOL      0.167036
    158 H76        11.7000    1.1670    2.4150 hx        1 MOL      0.167036
    159 H77        10.2310    1.1490    4.1060 hn        1 MOL      0.278100
    160 H78         9.1650    0.0730    3.3600 hn        1 MOL      0.278100
    161 H79        10.6480   -0.4050    3.6880 hn        1 MOL      0.278100
    162 N14         6.1000    0.2160   -1.3060 n         1 MOL     -0.434399
    163 C49         5.4890    1.1530   -2.2550 c3        1 MOL      0.010517
    164 C50         6.3120    2.4620   -2.3960 c         1 MOL      0.233711
    165 O22         5.9260    3.4460   -1.8010 o         1 MOL     -0.432778
    166 C51         3.9910    1.3330   -1.8340 c3        1 MOL      0.321227
    167 C52         3.1460    0.0640   -2.0230 c3        1 MOL     -0.147349
    168 C53         2.7650   -0.1210   -3.5160 c         1 MOL      0.587987
    169 O23         3.4960   -0.8380   -4.2710 o         1 MOL     -0.710184
    170 O24         1.8170    0.5220   -4.0580 o         1 MOL     -0.710184
    171 H80         5.5480    0.0380   -0.4860 hn        1 MOL      0.223583
    172 H81         5.4880    0.7560   -3.2680 h1        1 MOL      0.163113
    173 H82         3.5200    2.2170   -2.2640 hc        1 MOL     -0.058235
    174 H83         4.0170    1.5810   -0.7700 hc        1 MOL     -0.058235
    175 H84         2.2470    0.2970   -1.4460 hc        1 MOL      0.004168
    176 H85         3.7660   -0.7720   -1.6810 hc        1 MOL      0.004168
    177 N15         7.3750    2.4560   -3.1620 n         1 MOL     -0.061602
    178 C54         8.3320    3.4920   -3.5090 c3        1 MOL     -0.261367
    179 H86         8.9760    3.1350   -4.3130 h1        1 MOL      0.106083
    180 H87         7.7990    4.3840   -3.8400 h1        1 MOL      0.106083
    181 H88         8.9390    3.7330   -2.6370 h1        1 MOL      0.106083
    182 H89         7.4460    1.6080   -3.7060 hn        1 MOL      0.180208
    183 Ca1        -0.6710    0.0750   -4.1660 Ca        1 MOL      1.729235
    184 O25        -1.1620    2.6020   -3.6660 oh        1 MOL     -0.878645
    185 H90        -0.8000    3.3050   -4.2010 ho        1 MOL      0.432827
    186 H91        -1.9470    2.9740   -3.2750 ho        1 MOL      0.432827
    187 O26        -3.0880    0.3230   -5.7500 oh        1 MOL     -0.878645
    188 H92        -3.4140   -0.5660   -5.6450 ho        1 MOL      0.432827
    189 H93        -3.7660    0.7660   -6.2670 ho        1 MOL      0.432827
    190 O27        -0.8200   -2.5190   -3.8360 oh        1 MOL     -0.878645
    191 H94        -0.5860   -3.0870   -4.5710 ho        1 MOL      0.432827
    192 H95        -1.3590   -3.0670   -3.2760 ho        1 MOL      0.432827
@<TRIPOS>BOND
     1    1    2 1   
     2    1    4 1   
     3    1    5 1   
     4    1    6 1   
     5    2    3 2   
     6    2    7 1   
     7    7    8 1   
     8    7   15 1   
     9    8    9 1   
    10    8   11 1   
    11    8   16 1   
    12    9   10 2   
    13    9   19 1   
    14   11   12 1   
    15   11   17 1   
    16   11   18 1   
    17   12   13 1   
    18   12   14 1   
    19   19   20 1   
    20   19   28 1   
    21   20   21 1   
    22   20   23 1   
    23   20   29 1   
    24   21   22 2   
    25   21   41 1   
    26   23   24 1   
    27   23   30 1   
    28   23   31 1   
    29   24   25 1   
    30   24   32 1   
    31   24   33 1   
    32   25   26 1   
    33   25   34 1   
    34   25   35 1   
    35   26   27 1   
    36   26   36 1   
    37   26   37 1   
    38   27   38 1   
    39   27   39 1   
    40   27   40 1   
    41   41   42 1   
    42   41   49 1   
    43   42   43 1   
    44   42   45 1   
    45   42   50 1   
    46   43   44 2   
    47   43   53 1   
    48   45   46 1   
    49   45   51 1   
    50   45   52 1   
    51   46   47 1   
    52   46   48 1   
    53   53   54 1   
    54   53   57 1   
    55   54   55 1   
    56   54   58 1   
    57   54   59 1   
    58   55   56 2   
    59   55   60 1   
    60   60   61 1   
    61   60   68 1   
    62   61   62 1   
    63   61   64 1   
    64   61   69 1   
    65   62   63 2   
    66   62   72 1   
    67   64   65 1   
    68   64   70 1   
    69   64   71 1   
    70   65   66 1   
    71   65   67 1   
    72   72   73 1   
    73   72   76 1   
    74   73   74 1   
    75   73   77 1   
    76   73   78 1   
    77   74   75 2   
    78   74   79 1   
    79   79   80 1   
    80   79   86 1   
    81   80   81 1   
    82   80   83 1   
    83   80   87 1   
    84   81   82 2   
    85   81   93 1   
    86   83   84 1   
    87   83   85 1   
    88   83   88 1   
    89   84   90 1   
    90   84   91 1   
    91   84   92 1   
    92   85   89 1   
    93   93   94 1   
    94   93  101 1   
    95   94   95 1   
    96   94   97 1   
    97   94  102 1   
    98   95   96 2   
    99   95  112 1   
   100   97   98 1   
   101   97   99 1   
   102   97  103 1   
   103   98  100 1   
   104   98  104 1   
   105   98  105 1   
   106   99  106 1   
   107   99  107 1   
   108   99  108 1   
   109  100  109 1   
   110  100  110 1   
   111  100  111 1   
   112  112  113 1   
   113  112  119 1   
   114  113  114 1   
   115  113  116 1   
   116  113  120 1   
   117  114  115 2   
   118  114  126 1   
   119  116  117 1   
   120  116  118 1   
   121  116  121 1   
   122  117  123 1   
   123  117  124 1   
   124  117  125 1   
   125  118  122 1   
   126  126  127 1   
   127  126  133 1   
   128  127  128 1   
   129  127  130 1   
   130  127  134 1   
   131  128  129 2   
   132  128  140 1   
   133  130  131 1   
   134  130  132 1   
   135  130  135 1   
   136  131  137 1   
   137  131  138 1   
   138  131  139 1   
   139  132  136 1   
   140  140  141 1   
   141  140  149 1   
   142  141  142 1   
   143  141  144 1   
   144  141  150 1   
   145  142  143 2   
   146  142  162 1   
   147  144  145 1   
   148  144  151 1   
   149  144  152 1   
   150  145  146 1   
   151  145  153 1   
   152  145  154 1   
   153  146  147 1   
   154  146  155 1   
   155  146  156 1   
   156  147  148 1   
   157  147  157 1   
   158  147  158 1   
   159  148  159 1   
   160  148  160 1   
   161  148  161 1   
   162  162  163 1   
   163  162  171 1   
   164  163  164 1   
   165  163  166 1   
   166  163  172 1   
   167  164  165 2   
   168  164  177 1   
   169  166  167 1   
   170  166  173 1   
   171  166  174 1   
   172  167  168 1   
   173  167  175 1   
   174  167  176 1   
   175  168  169 1   
   176  168  170 1   
   177  177  178 1   
   178  177  182 1   
   179  178  179 1   
   180  178  180 1   
   181  178  181 1   
   182  184  185 1   
   183  184  186 1   
   184  187  188 1   
   185  187  189 1   
   186  190  191 1   
   187  190  192 1   
@<TRIPOS>SUBSTRUCTURE
     1 MOL         1 TEMP              0 ****  ****    0 ROOT
