@<TRIPOS>MOLECULE
MOL
  189   185     1     0     0
SMALL
resp


@<TRIPOS>ATOM
      1 C1         10.0980    1.7380    0.8160 c3        1 MOL     -0.535109
      2 C2          8.7920    1.1100    0.3580 c         1 MOL      0.738143
      3 O1          7.8500    0.9270    1.1670 o         1 MOL     -0.650802
      4 H1          9.8850    2.5960    1.4530 hc        1 MOL      0.138177
      5 H2         10.6780    1.0050    1.3770 hc        1 MOL      0.138177
      6 H3         10.6690    2.0650   -0.0540 hc        1 MOL      0.138177
      7 N1          8.7000    0.6880   -0.9050 n         1 MOL     -0.551991
      8 C3          7.4310    0.2540   -1.5450 c3        1 MOL      0.002869
      9 C4          6.8560   -1.1350   -1.1610 c         1 MOL      0.467717
     10 O2          6.5430   -1.9970   -1.9790 o         1 MOL     -0.427518
     11 C5          7.6070    0.2930   -3.1290 c3        1 MOL     -0.263929
     12 C6          8.6650   -0.6510   -3.6740 c         1 MOL      0.734144
     13 O3          9.6460   -0.9330   -2.9330 o         1 MOL     -0.651914
     14 O4          8.6150   -0.9170   -4.9130 o         1 MOL     -0.651914
     15 H4          9.5020    0.8240   -1.5030 hn        1 MOL      0.316178
     16 H5          6.6090    0.9520   -1.4000 h1        1 MOL      0.102297
     17 H6          8.0170    1.2640   -3.4020 hc        1 MOL      0.096040
     18 H7          6.6640    0.0860   -3.6290 hc        1 MOL      0.096040
     19 N2          6.8680   -1.4210    0.1300 n         1 MOL     -0.457487
     20 C7          6.5660   -2.7950    0.7250 c3        1 MOL      0.087346
     21 C8          5.1020   -3.1990    0.4420 c         1 MOL      0.513090
     22 O5          4.8590   -4.3430    0.0780 o         1 MOL     -0.555802
     23 C9          6.8780   -2.9110    2.2130 c3        1 MOL     -0.009943
     24 C10         8.3790   -2.8010    2.3970 c3        1 MOL     -0.000180
     25 C11         8.8910   -3.0270    3.7600 c3        1 MOL      0.021460
     26 C12        10.3910   -2.7110    3.8140 c3        1 MOL     -0.018575
     27 N3         10.9620   -2.4160    5.1980 n4        1 MOL     -0.163142
     28 H8          7.2230   -0.6750    0.7030 hn        1 MOL      0.296110
     29 H9          7.1450   -3.5910    0.2540 h1        1 MOL      0.080520
     30 H10         6.4590   -3.8280    2.6240 hc        1 MOL      0.009914
     31 H11         6.3990   -2.0200    2.6210 hc        1 MOL      0.009914
     32 H12         8.6450   -1.7780    2.1250 hc        1 MOL      0.030540
     33 H13         8.8710   -3.5510    1.7780 hc        1 MOL      0.030540
     34 H14         8.8450   -4.0760    4.0740 hc        1 MOL      0.016333
     35 H15         8.3860   -2.4270    4.5190 hc        1 MOL      0.016333
     36 H16        10.5470   -1.7900    3.2450 hx        1 MOL      0.084564
     37 H17        10.9240   -3.5650    3.4030 hx        1 MOL      0.084564
     38 H18        11.9660   -2.3030    5.2430 hn        1 MOL      0.268699
     39 H19        10.3840   -1.7100    5.6360 hn        1 MOL      0.268699
     40 H20        10.7720   -3.2310    5.7620 hn        1 MOL      0.268699
     41 N4          4.0100   -2.4980    0.6790 n         1 MOL     -0.471850
     42 C13         3.9110   -1.1080    1.1380 c3        1 MOL      0.118709
     43 C14         3.8760   -0.0750    0.0130 c         1 MOL      0.249028
     44 O6          3.7450   -0.3460   -1.1320 o         1 MOL     -0.281321
     45 C15         2.7520   -0.9400    2.0840 c3        1 MOL     -0.225202
     46 C16         1.4180   -1.5090    1.5830 c         1 MOL      0.801503
     47 O7          0.7820   -0.8370    0.7510 o         1 MOL     -0.714344
     48 O8          0.9610   -2.5080    2.1470 o         1 MOL     -0.714344
     49 H21         3.1730   -3.0060    0.4360 hn        1 MOL      0.358872
     50 H22         4.8110   -0.9910    1.7470 h1        1 MOL      0.079839
     51 H23         2.6830    0.0970    2.4040 hc        1 MOL      0.016816
     52 H24         3.0260   -1.4790    2.9930 hc        1 MOL      0.016816
     53 N5          3.9650    1.2300    0.4050 n         1 MOL     -0.444732
     54 C17         3.9250    2.4120   -0.4530 c3        1 MOL     -0.008118
     55 C18         2.5700    2.5880   -1.2200 c         1 MOL      0.394335
     56 O9          1.6060    1.9190   -0.9120 o         1 MOL     -0.339912
     57 H25         4.1140    1.3280    1.3980 hn        1 MOL      0.294047
     58 H26         4.6400    2.3140   -1.2600 h1        1 MOL      0.069771
     59 H27         4.0110    3.3480    0.0800 h1        1 MOL      0.069771
     60 N6          2.4770    3.5740   -2.1420 n         1 MOL     -0.438031
     61 C19         1.3430    3.9120   -2.9980 c3        1 MOL      0.232588
     62 C20         1.3440    5.4120   -3.3990 c         1 MOL      0.475311
     63 O10         2.4120    6.0590   -3.3740 o         1 MOL     -0.519291
     64 C21         1.1090    2.9980   -4.2370 c3        1 MOL     -0.270198
     65 C22         0.7700    1.5440   -3.7960 c         1 MOL      0.783935
     66 O11        -0.3060    1.3050   -3.2220 o         1 MOL     -0.707984
     67 O12         1.4660    0.5880   -4.1580 o         1 MOL     -0.707984
     68 H28         3.3800    3.9690   -2.3690 hn        1 MOL      0.267622
     69 H29         0.5000    3.8480   -2.3020 h1        1 MOL     -0.013628
     70 H30         2.0180    2.9550   -4.8290 hc        1 MOL      0.081902
     71 H31         0.2460    3.3280   -4.8190 hc        1 MOL      0.081902
     72 N7          0.1510    6.0280   -3.6010 n         1 MOL     -0.597791
     73 C23        -1.2360    5.5710   -3.3350 c3        1 MOL      0.288289
     74 C24        -1.5480    5.6810   -1.8580 c         1 MOL      0.354550
     75 O13        -0.7200    5.9490   -0.9850 o         1 MOL     -0.425204
     76 H32         0.3050    7.0200   -3.7060 hn        1 MOL      0.334215
     77 H33        -1.3610    4.5040   -3.5170 h1        1 MOL     -0.004603
     78 H34        -2.0230    6.0810   -3.8930 h1        1 MOL     -0.004603
     79 N8         -2.8150    5.2660   -1.5200 n         1 MOL     -0.441835
     80 C25        -3.1480    4.8720   -0.1270 c3        1 MOL      0.144423
     81 C26        -2.2040    3.7660    0.4330 c         1 MOL      0.916761
     82 O14        -1.6700    2.9130   -0.2360 o         1 MOL     -0.763622
     83 C27        -4.6500    4.4370   -0.0020 c3        1 MOL      0.144082
     84 C28        -5.2650    3.8180   -1.2420 c3        1 MOL      0.005453
     85 O15        -5.4740    5.5900    0.3440 oh        1 MOL     -0.616250
     86 H35        -3.5830    5.2480   -2.1650 hn        1 MOL      0.286780
     87 H36        -2.8690    5.7390    0.4690 h1        1 MOL      0.045975
     88 H37        -4.7440    3.7240    0.8200 h1        1 MOL     -0.021565
     89 H38        -6.2730    5.1930    0.6810 ho        1 MOL      0.377914
     90 H39        -6.2860    3.4560   -1.1900 hc        1 MOL      0.008239
     91 H40        -5.2520    4.5400   -2.0560 hc        1 MOL      0.008239
     92 H41        -4.6580    2.9580   -1.5340 hc        1 MOL      0.008239
     93 N9         -1.9380    3.9060    1.7210 n         1 MOL     -0.837401
     94 C29        -1.1570    2.9600    2.5230 c3        1 MOL      0.615236
     95 C30        -1.7730    1.5430    2.4960 c         1 MOL      0.398706
     96 O16        -1.6690    0.8330    1.4630 o         1 MOL     -0.535217
     97 C31         0.3450    2.9400    2.2110 c3        1 MOL      0.250138
     98 C32         1.0680    4.2500    1.9830 c3        1 MOL     -0.297941
     99 C33         1.0650    2.1570    3.2940 c3        1 MOL     -0.594280
    100 C34         0.9410    5.2970    3.0910 c3        1 MOL     -0.414050
    101 H42        -2.3740    4.6880    2.2010 hn        1 MOL      0.301842
    102 H43        -1.2820    3.3040    3.5510 h1        1 MOL     -0.063507
    103 H44         0.5100    2.4670    1.2460 hc        1 MOL     -0.087727
    104 H45         0.6600    4.6520    1.0650 hc        1 MOL      0.154098
    105 H46         2.1330    4.0340    1.9020 hc        1 MOL      0.154098
    106 H47         0.8740    1.0870    3.2080 hc        1 MOL      0.150693
    107 H48         2.1410    2.1970    3.1440 hc        1 MOL      0.150693
    108 H49         0.8310    2.6210    4.2460 hc        1 MOL      0.150693
    109 H50         1.7290    5.1220    3.8290 hc        1 MOL      0.114015
    110 H51         1.1110    6.2200    2.5250 hc        1 MOL      0.114015
    111 H52        -0.0430    5.2340    3.5560 hc        1 MOL      0.114015
    112 N10        -2.2670    1.0990    3.6500 n         1 MOL     -0.724004
    113 C35        -2.6440   -0.3120    3.9440 c3        1 MOL      0.268264
    114 C36        -3.9730   -0.7770    3.3850 c         1 MOL      0.418385
    115 O17        -4.2410   -1.9630    3.4450 o         1 MOL     -0.518107
    116 C37        -2.7030   -0.4780    5.5250 c3        1 MOL      0.360503
    117 C38        -3.8290    0.4030    6.1700 c3        1 MOL     -0.155058
    118 O18        -1.4580   -0.0090    5.9840 oh        1 MOL     -0.625710
    119 H53        -2.1600    1.7240    4.4400 hn        1 MOL      0.338899
    120 H54        -1.9290   -1.0110    3.5080 h1        1 MOL      0.036420
    121 H55        -2.9190   -1.5380    5.6160 h1        1 MOL     -0.020543
    122 H56        -0.7850   -0.5850    5.6210 ho        1 MOL      0.402250
    123 H57        -3.5930    0.6200    7.2060 hc        1 MOL      0.043645
    124 H58        -4.1050    1.2620    5.5530 hc        1 MOL      0.043645
    125 H59        -4.7680   -0.1500    6.2090 hc        1 MOL      0.043645
    126 N11        -4.7810    0.1350    2.7990 n         1 MOL     -0.289585
    127 C39        -6.0740   -0.3590    2.3020 c3        1 MOL     -0.092258
    128 C40        -5.8050   -1.0530    0.9300 c         1 MOL      0.490870
    129 O19        -4.9690   -0.5290    0.0830 o         1 MOL     -0.404618
    130 C41        -7.1480    0.7730    2.1880 c3        1 MOL      0.412520
    131 C42        -7.5170    1.3740    3.5720 c3        1 MOL     -0.522098
    132 O20        -6.6420    1.8060    1.4400 oh        1 MOL     -0.604600
    133 H60        -4.5310    1.0830    2.5910 hn        1 MOL      0.282508
    134 H61        -6.4580   -1.1410    2.9640 h1        1 MOL      0.077716
    135 H62        -8.0290    0.2980    1.7530 h1        1 MOL     -0.057641
    136 H63        -7.1840    2.5650    1.6780 ho        1 MOL      0.397703
    137 H64        -8.4490    1.9370    3.4820 hc        1 MOL      0.135476
    138 H65        -7.7310    0.5230    4.2160 hc        1 MOL      0.135476
    139 H66        -6.6940    1.9640    3.9690 hc        1 MOL      0.135476
    140 N12        -6.5140   -2.1690    0.6490 n         1 MOL     -0.403514
    141 C43        -6.4570   -2.9550   -0.6050 c3        1 MOL     -0.011532
    142 C44        -5.0680   -2.9430   -1.3290 c         1 MOL      0.485861
    143 O21        -4.8800   -2.0660   -2.1760 o         1 MOL     -0.515580
    144 C45        -7.5720   -2.5200   -1.5530 c3        1 MOL     -0.232435
    145 C46        -8.9490   -2.4660   -0.9380 c3        1 MOL      0.112058
    146 C47        -9.9550   -2.1930   -2.0280 c3        1 MOL     -0.059625
    147 C48       -11.4150   -2.4870   -1.5350 c3        1 MOL     -0.091804
    148 N13       -11.7920   -1.4980   -0.5290 n4        1 MOL     -0.070248
    149 H67        -7.1530   -2.4420    1.3940 hn        1 MOL      0.271634
    150 H68        -6.6600   -3.9820   -0.3160 h1        1 MOL      0.068263
    151 H69        -7.5980   -3.0890   -2.4760 hc        1 MOL      0.105674
    152 H70        -7.3050   -1.5050   -1.8610 hc        1 MOL      0.105674
    153 H71        -9.0370   -1.7350   -0.1370 hc        1 MOL     -0.012285
    154 H72        -9.2220   -3.4180   -0.4690 hc        1 MOL     -0.012285
    155 H73        -9.7810   -2.7880   -2.9200 hc        1 MOL      0.055778
    156 H74        -9.9660   -1.1600   -2.3740 hc        1 MOL      0.055778
    157 H75       -11.5530   -3.5170   -1.2060 hx        1 MOL      0.111067
    158 H76       -11.9950   -2.3390   -2.4550 hx        1 MOL      0.111067
    159 H77       -12.7430   -1.6300   -0.2070 hn        1 MOL      0.147314
    160 H78       -11.1990   -1.5290    0.2780 hn        1 MOL      0.147314
    161 H79       -11.6980   -0.5530   -0.8840 hn        1 MOL      0.147314
    162 N14        -4.1380   -3.8010   -0.9420 n         1 MOL     -0.389202
    163 C49        -2.7530   -3.8280   -1.4540 c3        1 MOL      0.171287
    164 C50        -1.7730   -3.1390   -0.5370 c         1 MOL      0.631568
    165 O22        -1.4280   -2.0630   -0.8780 o         1 MOL     -0.727831
    166 C51        -2.3850   -5.2500   -2.0290 c3        1 MOL      0.035982
    167 C52        -3.1850   -5.6000   -3.2610 c3        1 MOL     -0.267001
    168 C53        -2.6380   -7.0000   -3.8410 c         1 MOL      0.678196
    169 O23        -1.7930   -6.9650   -4.7830 o         1 MOL     -0.620621
    170 O24        -3.0540   -8.0510   -3.3520 o         1 MOL     -0.620621
    171 H80        -4.4950   -4.5560   -0.3740 hn        1 MOL      0.264811
    172 H81        -2.7380   -3.1920   -2.3520 h1        1 MOL      0.050364
    173 H82        -2.4450   -5.9780   -1.2300 hc        1 MOL      0.028809
    174 H83        -1.3440   -5.3280   -2.3570 hc        1 MOL      0.028809
    175 H84        -3.0720   -4.7600   -3.9430 hc        1 MOL      0.039502
    176 H85        -4.2400   -5.7430   -3.0000 hc        1 MOL      0.039502
    177 N15        -1.3680   -3.5930    0.6440 n         1 MOL     -0.518519
    178 C54        -1.7460   -4.9260    1.2290 c3        1 MOL     -0.019001
    179 H86        -0.8790   -5.5870    1.2140 h1        1 MOL      0.038232
    180 H87        -2.0810   -4.7900    2.2570 h1        1 MOL      0.038232
    181 H88        -2.5490   -5.3670    0.6390 h1        1 MOL      0.038232
    182 H89        -0.5980   -3.1020    1.0830 hn        1 MOL      0.431062
    183 Ca1        -0.7140    0.4660   -0.8360 Ca        1 MOL      1.675477
    184 O25        -3.1670    0.2670   -1.4710 oh        1 MOL     -0.879732
    185 H90        -3.8160    0.0560   -0.7950 ho        1 MOL      0.417229
    186 H91        -3.3250   -0.3790   -2.1630 ho        1 MOL      0.417229
    187 O26         0.8580   -1.3110   -2.5770 oh        1 MOL     -0.879732
    188 H92         0.4350   -1.9020   -3.1940 ho        1 MOL      0.417229
    189 H93         1.1920   -0.5900   -3.1150 ho        1 MOL      0.417229
@<TRIPOS>BOND
     1    1    2 1   
     2    1    4 1   
     3    1    5 1   
     4    1    6 1   
     5    2    3 2   
     6    2    7 1   
     7    7    8 1   
     8    7   15 1   
     9    8    9 1   
    10    8   11 1   
    11    8   16 1   
    12    9   10 2   
    13    9   19 1   
    14   11   12 1   
    15   11   17 1   
    16   11   18 1   
    17   12   13 1   
    18   12   14 1   
    19   19   20 1   
    20   19   28 1   
    21   20   21 1   
    22   20   23 1   
    23   20   29 1   
    24   21   22 2   
    25   21   41 1   
    26   23   24 1   
    27   23   30 1   
    28   23   31 1   
    29   24   25 1   
    30   24   32 1   
    31   24   33 1   
    32   25   26 1   
    33   25   34 1   
    34   25   35 1   
    35   26   27 1   
    36   26   36 1   
    37   26   37 1   
    38   27   38 1   
    39   27   39 1   
    40   27   40 1   
    41   41   42 1   
    42   41   49 1   
    43   42   43 1   
    44   42   45 1   
    45   42   50 1   
    46   43   44 2   
    47   43   53 1   
    48   45   46 1   
    49   45   51 1   
    50   45   52 1   
    51   46   47 1   
    52   46   48 1   
    53   53   54 1   
    54   53   57 1   
    55   54   55 1   
    56   54   58 1   
    57   54   59 1   
    58   55   56 2   
    59   55   60 1   
    60   60   61 1   
    61   60   68 1   
    62   61   62 1   
    63   61   64 1   
    64   61   69 1   
    65   62   63 2   
    66   62   72 1   
    67   64   65 1   
    68   64   70 1   
    69   64   71 1   
    70   65   66 1   
    71   65   67 1   
    72   72   73 1   
    73   72   76 1   
    74   73   74 1   
    75   73   77 1   
    76   73   78 1   
    77   74   75 2   
    78   74   79 1   
    79   79   80 1   
    80   79   86 1   
    81   80   81 1   
    82   80   83 1   
    83   80   87 1   
    84   81   82 2   
    85   81   93 1   
    86   83   84 1   
    87   83   85 1   
    88   83   88 1   
    89   84   90 1   
    90   84   91 1   
    91   84   92 1   
    92   85   89 1   
    93   93   94 1   
    94   93  101 1   
    95   94   95 1   
    96   94   97 1   
    97   94  102 1   
    98   95   96 2   
    99   95  112 1   
   100   97   98 1   
   101   97   99 1   
   102   97  103 1   
   103   98  100 1   
   104   98  104 1   
   105   98  105 1   
   106   99  106 1   
   107   99  107 1   
   108   99  108 1   
   109  100  109 1   
   110  100  110 1   
   111  100  111 1   
   112  112  113 1   
   113  112  119 1   
   114  113  114 1   
   115  113  116 1   
   116  113  120 1   
   117  114  115 2   
   118  114  126 1   
   119  116  117 1   
   120  116  118 1   
   121  116  121 1   
   122  117  123 1   
   123  117  124 1   
   124  117  125 1   
   125  118  122 1   
   126  126  127 1   
   127  126  133 1   
   128  127  128 1   
   129  127  130 1   
   130  127  134 1   
   131  128  129 2   
   132  128  140 1   
   133  130  131 1   
   134  130  132 1   
   135  130  135 1   
   136  131  137 1   
   137  131  138 1   
   138  131  139 1   
   139  132  136 1   
   140  140  141 1   
   141  140  149 1   
   142  141  142 1   
   143  141  144 1   
   144  141  150 1   
   145  142  143 2   
   146  142  162 1   
   147  144  145 1   
   148  144  151 1   
   149  144  152 1   
   150  145  146 1   
   151  145  153 1   
   152  145  154 1   
   153  146  147 1   
   154  146  155 1   
   155  146  156 1   
   156  147  148 1   
   157  147  157 1   
   158  147  158 1   
   159  148  159 1   
   160  148  160 1   
   161  148  161 1   
   162  162  163 1   
   163  162  171 1   
   164  163  164 1   
   165  163  166 1   
   166  163  172 1   
   167  164  165 2   
   168  164  177 1   
   169  166  167 1   
   170  166  173 1   
   171  166  174 1   
   172  167  168 1   
   173  167  175 1   
   174  167  176 1   
   175  168  169 1   
   176  168  170 1   
   177  177  178 1   
   178  177  182 1   
   179  178  179 1   
   180  178  180 1   
   181  178  181 1   
   182  184  185 1   
   183  184  186 1   
   184  187  188 1   
   185  187  189 1   
@<TRIPOS>SUBSTRUCTURE
     1 MOL         1 TEMP              0 ****  ****    0 ROOT
