@<TRIPOS>MOLECULE
MOL
  191   184     1     0     0
SMALL
resp


@<TRIPOS>ATOM
      1 C1          3.6830    3.7770    2.4660 c3        1 MOL     -0.384649
      2 C2          4.5580    2.8750    1.5940 c         1 MOL      0.854311
      3 O1          4.2490    1.6940    1.4020 o         1 MOL     -0.669920
      4 H1          4.1880    3.9680    3.4120 hc        1 MOL      0.092591
      5 H2          3.5070    4.7220    1.9510 hc        1 MOL      0.092591
      6 H3          2.7290    3.2850    2.6570 hc        1 MOL      0.092591
      7 N1          5.7430    3.3940    1.1820 n         1 MOL     -0.648017
      8 C3          6.7230    2.6520    0.4020 c3        1 MOL      0.195948
      9 C4          7.1270    1.3350    1.0910 c         1 MOL      0.459505
     10 O2          7.6480    0.5000    0.4060 o         1 MOL     -0.514422
     11 C5          6.4010    2.5320   -1.0900 c3        1 MOL     -0.205206
     12 C6          5.6960    3.6900   -1.7080 c         1 MOL      0.722608
     13 O3          6.1160    4.8710   -1.5690 o         1 MOL     -0.705870
     14 O4          4.6570    3.4440   -2.3340 o         1 MOL     -0.705870
     15 H4          6.0890    4.1940    1.6750 hn        1 MOL      0.315772
     16 H5          7.6040    3.2870    0.4660 h1        1 MOL      0.035099
     17 H6          5.8140    1.6180   -1.2120 hc        1 MOL      0.062542
     18 H7          7.3230    2.3920   -1.6640 hc        1 MOL      0.062542
     19 N2          6.9850    1.1760    2.3900 n         1 MOL     -0.490189
     20 C7          7.1620   -0.0940    3.1840 c3        1 MOL      0.315553
     21 C8          6.2860   -1.3450    2.9380 c         1 MOL      0.361856
     22 O5          5.7510   -1.9330    3.8970 o         1 MOL     -0.513318
     23 C9          7.1570    0.4550    4.6850 c3        1 MOL     -0.053266
     24 C10         8.3080    1.3560    5.0640 c3        1 MOL     -0.014946
     25 C11         8.3700    1.6580    6.5930 c3        1 MOL      0.102015
     26 C12         9.7540    2.1420    6.9200 c3        1 MOL     -0.038906
     27 N3          9.7710    2.5020    8.3680 n4        1 MOL     -0.181527
     28 H8          6.6430    1.9470    2.9520 hn        1 MOL      0.246916
     29 H9          8.1500   -0.4620    2.9110 h1        1 MOL      0.010769
     30 H10         7.1430   -0.4080    5.3460 hc        1 MOL      0.014304
     31 H11         6.2120    0.9510    4.8700 hc        1 MOL      0.014304
     32 H12         8.1500    2.3150    4.5760 hc        1 MOL     -0.004179
     33 H13         9.1850    0.8740    4.6360 hc        1 MOL     -0.004179
     34 H14         8.1060    0.8140    7.2260 hc        1 MOL      0.008969
     35 H15         7.6100    2.4260    6.7470 hc        1 MOL      0.008969
     36 H16         9.8660    3.0860    6.3920 hx        1 MOL      0.091003
     37 H17        10.5460    1.4020    6.7590 hx        1 MOL      0.091003
     38 H18         9.0050    3.0870    8.6590 hn        1 MOL      0.218259
     39 H19         9.7860    1.6540    8.9230 hn        1 MOL      0.218259
     40 H20        10.5450    3.1060    8.5890 hn        1 MOL      0.218259
     41 N4          6.0300   -1.5890    1.6510 n         1 MOL     -0.375998
     42 C13         4.9710   -2.3960    1.1410 c3        1 MOL      0.128779
     43 C14         5.3750   -3.1910   -0.1290 c         1 MOL      0.296886
     44 O6          6.0590   -2.6300   -1.0440 o         1 MOL     -0.434994
     45 C15         3.7140   -1.5000    1.0030 c3        1 MOL     -0.257730
     46 C16         2.5120   -2.2150    0.3870 c         1 MOL      0.713341
     47 O7          2.6400   -2.7660   -0.7300 o         1 MOL     -0.740408
     48 O8          1.4290   -2.1840    0.9810 o         1 MOL     -0.740408
     49 H21         6.4520   -0.9350    0.9970 hn        1 MOL      0.260662
     50 H22         4.7170   -3.0250    1.9920 h1        1 MOL      0.031210
     51 H23         3.9600   -0.7740    0.2290 hc        1 MOL      0.182582
     52 H24         3.4420   -1.0460    1.9600 hc        1 MOL      0.182582
     53 N5          4.9790   -4.4890   -0.2100 n         1 MOL     -0.105320
     54 C17         5.4180   -5.4440   -1.2370 c3        1 MOL     -0.282300
     55 C18         4.9320   -5.0500   -2.6590 c         1 MOL      0.636509
     56 O9          5.4510   -5.6450   -3.6450 o         1 MOL     -0.582417
     57 H25         4.6230   -4.8990    0.6390 hn        1 MOL      0.190051
     58 H26         4.9650   -6.4070   -1.0240 h1        1 MOL      0.125038
     59 H27         6.5040   -5.4970   -1.2430 h1        1 MOL      0.125038
     60 N6          3.9370   -4.1750   -2.8470 n         1 MOL     -0.384170
     61 C19         3.6370   -3.5180   -4.1780 c3        1 MOL      0.079868
     62 C20         3.5690   -1.9130   -4.1870 c         1 MOL      0.298532
     63 O10         3.3450   -1.3460   -5.2710 o         1 MOL     -0.496651
     64 C21         2.3820   -4.0490   -4.8380 c3        1 MOL     -0.314189
     65 C22         0.9960   -3.5350   -4.3760 c         1 MOL      0.634636
     66 N7          0.1690   -2.9930   -5.2670 n         1 MOL     -0.791303
     67 O11         0.6860   -3.5720   -3.2080 o         1 MOL     -0.542942
     68 H28         3.5210   -3.7160   -2.0440 hn        1 MOL      0.135947
     69 H29         4.4560   -3.8270   -4.8230 h1        1 MOL      0.136786
     70 H30         2.3130   -5.1320   -4.7240 hc        1 MOL      0.100290
     71 H31         2.4290   -3.8580   -5.9090 hc        1 MOL      0.100290
     72 H32         0.6720   -2.7780   -6.1290 hn        1 MOL      0.384142
     73 H33        -0.7250   -2.6590   -4.9480 hn        1 MOL      0.384142
     74 N8          3.7080   -1.2530   -3.0220 n         1 MOL      0.050516
     75 C23         3.7250    0.1710   -2.8110 c3        1 MOL     -0.216759
     76 C24         2.3320    0.7950   -2.8590 c         1 MOL      0.735415
     77 O12         1.3210    0.1330   -3.1340 o         1 MOL     -0.611342
     78 H34         3.9990   -1.7920   -2.2130 hn        1 MOL      0.087685
     79 H35         4.2530    0.5480   -3.6830 h1        1 MOL      0.091754
     80 H36         4.1740    0.5270   -1.8830 h1        1 MOL      0.091754
     81 N9          2.2850    2.0960   -2.5120 n         1 MOL     -0.622984
     82 C25         1.0520    2.8870   -2.3790 c3        1 MOL      0.224789
     83 C26         0.1010    2.4410   -1.2650 c         1 MOL      0.383239
     84 O13         0.4950    1.8710   -0.2270 o         1 MOL     -0.446282
     85 C27         1.3410    4.3970   -2.2300 c3        1 MOL      0.011233
     86 C28         0.3000    5.4600   -2.3600 ca        1 MOL      0.003741
     87 C29        -0.7700    5.2930   -3.3470 ca        1 MOL     -0.091226
     88 C30         0.3510    6.6790   -1.7010 ca        1 MOL     -0.091226
     89 C31        -1.6560    6.3290   -3.6550 ca        1 MOL     -0.327018
     90 C32        -0.5560    7.7200   -1.9620 ca        1 MOL     -0.327018
     91 C33        -1.6030    7.5320   -2.9450 ca        1 MOL      0.397329
     92 O14        -2.5970    8.4720   -3.0750 oh        1 MOL     -0.526112
     93 H37         3.1710    2.5370   -2.3500 hn        1 MOL      0.361815
     94 H38         0.4310    2.8060   -3.2810 h1        1 MOL     -0.012076
     95 H39         2.1160    4.6890   -2.9410 hc        1 MOL      0.057149
     96 H40         1.8600    4.5640   -1.2860 hc        1 MOL      0.057149
     97 H41        -0.7420    4.4710   -4.0360 ha        1 MOL      0.115647
     98 H42         1.0230    6.8270   -0.8650 ha        1 MOL      0.115647
     99 H43        -2.4300    6.1940   -4.3960 ha        1 MOL      0.163461
    100 H44        -0.3410    8.6460   -1.4520 ha        1 MOL      0.163461
    101 H45        -2.4900    9.2200   -2.4740 ho        1 MOL      0.386200
    102 N10        -1.1940    2.7750   -1.4110 n         1 MOL     -0.572900
    103 C34        -2.2600    2.5840   -0.4240 c3        1 MOL      0.120844
    104 C35        -3.2260    1.4160   -0.6160 c         1 MOL      0.548025
    105 O15        -3.8980    0.9540    0.3080 o         1 MOL     -0.589500
    106 C36        -3.0000    3.9560   -0.3160 c3        1 MOL      0.260150
    107 C37        -3.6010    3.9680    1.0900 c3        1 MOL     -0.026214
    108 C38        -3.9860    4.3390   -1.4180 c3        1 MOL     -0.384048
    109 C39        -3.7690    5.3740    1.6290 c3        1 MOL     -0.116923
    110 H46        -1.3310    3.3510   -2.2290 hn        1 MOL      0.234898
    111 H47        -1.7500    2.3420    0.5110 h1        1 MOL      0.085944
    112 H48        -2.1810    4.6690   -0.4660 hc        1 MOL     -0.026010
    113 H49        -2.9460    3.5340    1.8510 hc        1 MOL      0.038359
    114 H50        -4.6170    3.5910    1.0180 hc        1 MOL      0.038359
    115 H51        -4.7610    3.6030   -1.5840 hc        1 MOL      0.086053
    116 H52        -4.3850    5.3290   -1.1850 hc        1 MOL      0.086053
    117 H53        -3.4030    4.4300   -2.3440 hc        1 MOL      0.086053
    118 H54        -4.4160    6.0530    1.0640 hc        1 MOL      0.023261
    119 H55        -4.2910    5.2730    2.5750 hc        1 MOL      0.023261
    120 H56        -2.8160    5.8390    1.8810 hc        1 MOL      0.023261
    121 N11        -3.4330    0.9750   -1.8580 n         1 MOL     -0.288949
    122 C40        -4.1810   -0.3030   -2.1660 c3        1 MOL     -0.168321
    123 C41        -5.7110   -0.1540   -2.2810 c         1 MOL      0.292332
    124 O16        -6.3890   -1.1590   -2.5460 o         1 MOL     -0.496741
    125 C42        -3.6670   -0.8350   -3.4780 c3        1 MOL      0.155809
    126 O17        -2.2680   -0.8290   -3.4780 oh        1 MOL     -0.659757
    127 H57        -2.9790    1.4370   -2.6330 hn        1 MOL      0.219155
    128 H58        -3.8960   -1.0740   -1.4510 h1        1 MOL      0.219188
    129 H59        -3.9220   -0.1740   -4.2960 h1        1 MOL      0.063706
    130 H60        -3.9660   -1.8650   -3.6940 h1        1 MOL      0.063706
    131 H61        -2.0570    0.0410   -3.8270 ho        1 MOL      0.416872
    132 N12        -6.2870    1.0240   -2.0510 n         1 MOL     -0.194849
    133 C43        -7.6770    1.4510   -1.6270 c3        1 MOL      0.118693
    134 C44        -8.4320    0.6730   -0.5540 c         1 MOL      0.379631
    135 O18        -9.4420    1.1090    0.0180 o         1 MOL     -0.523840
    136 C45        -8.4720    1.6740   -2.9490 c3        1 MOL     -0.162855
    137 H62        -5.5890    1.7540   -1.9770 hn        1 MOL      0.153113
    138 H63        -7.5400    2.4660   -1.2630 h1        1 MOL      0.091216
    139 H64        -9.3630    2.2880   -2.8100 hc        1 MOL      0.054957
    140 H65        -7.8250    2.3080   -3.5580 hc        1 MOL      0.054957
    141 H66        -8.6510    0.7240   -3.4530 hc        1 MOL      0.054957
    142 N13        -8.0240   -0.5320   -0.2020 n         1 MOL     -0.345581
    143 C46        -8.5580   -1.3570    0.8950 c3        1 MOL      0.420395
    144 C47        -8.0980   -0.8990    2.2570 c         1 MOL      0.309017
    145 O19        -7.0240   -0.2980    2.4010 o         1 MOL     -0.431866
    146 C48        -8.3440   -2.8220    0.5180 c3        1 MOL     -0.357519
    147 H67        -7.3690   -0.9860   -0.8180 hn        1 MOL      0.237064
    148 H68        -9.6450   -1.2520    0.8590 h1        1 MOL     -0.030517
    149 H69        -7.2710   -2.9510    0.4110 hc        1 MOL      0.093940
    150 H70        -8.8000   -3.4960    1.2480 hc        1 MOL      0.093940
    151 H71        -8.8060   -2.9610   -0.4590 hc        1 MOL      0.093940
    152 N14        -8.7190   -1.3710    3.3510 n         1 MOL     -0.480211
    153 C49        -8.2540   -1.2740    4.7440 c3        1 MOL     -0.073700
    154 C50        -7.5890    0.1070    5.1470 c         1 MOL      0.428699
    155 O20        -6.7160    0.2280    5.9840 o         1 MOL     -0.463336
    156 C51        -7.4060   -2.5350    5.0840 c3        1 MOL      0.044152
    157 C52        -6.0470   -2.5460    4.3290 c3        1 MOL     -0.194468
    158 C53        -5.2680   -3.8520    4.5080 c         1 MOL      0.720239
    159 O21        -4.2100   -3.8240    5.1430 o         1 MOL     -0.680230
    160 O22        -5.6630   -4.8510    3.9220 o         1 MOL     -0.680230
    161 H72        -9.5130   -1.9920    3.2790 hn        1 MOL      0.321412
    162 H73        -9.1800   -1.4260    5.2960 h1        1 MOL      0.059627
    163 H74        -8.0530   -3.3800    4.8590 hc        1 MOL      0.020944
    164 H75        -7.1550   -2.5950    6.1460 hc        1 MOL      0.020944
    165 H76        -5.2980   -1.8260    4.6740 hc        1 MOL      0.068028
    166 H77        -6.2740   -2.4840    3.2600 hc        1 MOL      0.068028
    167 N15        -8.2980    1.1540    4.6830 n         1 MOL     -0.219969
    168 C54        -8.0090    2.5080    5.0700 c3        1 MOL     -0.111743
    169 H78        -7.4970    2.5090    6.0320 h1        1 MOL      0.066779
    170 H79        -7.3720    2.9730    4.3190 h1        1 MOL      0.066779
    171 H80        -8.9410    3.0690    5.1540 h1        1 MOL      0.066779
    172 H81        -9.1300    0.9300    4.1490 hn        1 MOL      0.229803
    173 Ca1        -0.0780   -3.6460   -0.6600 Ca        1 MOL      1.723384
    174 O23        -2.2540   -2.3460    0.3560 oh        1 MOL     -0.828775
    175 O24        -0.6100   -6.0090   -1.8530 oh        1 MOL     -0.828775
    176 H82        -2.9540   -2.8600    0.7610 ho        1 MOL      0.419144
    177 H83        -0.2940   -6.6990   -1.2770 ho        1 MOL      0.419144
    178 H84        -2.2830   -1.5060    0.8010 ho        1 MOL      0.419144
    179 H85        -1.2600   -6.4230   -2.4140 ho        1 MOL      0.419144
    180 O25        -1.1620   -5.1860    1.1750 oh        1 MOL     -0.828775
    181 H86        -0.7120   -5.6350    1.8950 ho        1 MOL      0.419144
    182 H87        -2.0800   -5.2190    1.4210 ho        1 MOL      0.419144
    183 O26        -0.1690   -1.1670   -1.4490 oh        1 MOL     -0.828775
    184 H88         0.5590   -0.8710   -1.9950 ho        1 MOL      0.419144
    185 H89        -0.9450   -1.0030   -1.9760 ho        1 MOL      0.419144
    186 O27         1.6850   -5.5650    0.2330 oh        1 MOL     -0.828775
    187 H90         1.7020   -6.5070    0.0520 ho        1 MOL      0.419144
    188 H91         2.2640   -5.4560    0.9850 ho        1 MOL      0.419144
    189 O28        -2.2660   -3.7230   -2.1640 oh        1 MOL     -0.828775
    190 H92        -2.1910   -3.9380   -3.0980 ho        1 MOL      0.419144
    191 H93        -3.0370   -3.1560   -2.1070 ho        1 MOL      0.419144
@<TRIPOS>BOND
     1    1    2 1   
     2    1    4 1   
     3    1    5 1   
     4    1    6 1   
     5    2    3 2   
     6    2    7 1   
     7    7    8 1   
     8    7   15 1   
     9    8    9 1   
    10    8   11 1   
    11    8   16 1   
    12    9   10 2   
    13    9   19 1   
    14   11   12 1   
    15   11   17 1   
    16   11   18 1   
    17   12   13 1   
    18   12   14 1   
    19   19   20 1   
    20   19   28 1   
    21   20   21 1   
    22   20   23 1   
    23   20   29 1   
    24   21   22 2   
    25   21   41 1   
    26   23   24 1   
    27   23   30 1   
    28   23   31 1   
    29   24   25 1   
    30   24   32 1   
    31   24   33 1   
    32   25   26 1   
    33   25   34 1   
    34   25   35 1   
    35   26   27 1   
    36   26   36 1   
    37   26   37 1   
    38   27   38 1   
    39   27   39 1   
    40   27   40 1   
    41   41   42 1   
    42   41   49 1   
    43   42   43 1   
    44   42   45 1   
    45   42   50 1   
    46   43   44 2   
    47   43   53 1   
    48   45   46 1   
    49   45   51 1   
    50   45   52 1   
    51   46   47 1   
    52   46   48 1   
    53   53   54 1   
    54   53   57 1   
    55   54   55 1   
    56   54   58 1   
    57   54   59 1   
    58   55   56 2   
    59   55   60 1   
    60   60   61 1   
    61   60   68 1   
    62   61   62 1   
    63   61   64 1   
    64   61   69 1   
    65   62   63 2   
    66   62   74 1   
    67   64   65 1   
    68   64   70 1   
    69   64   71 1   
    70   65   66 1   
    71   65   67 2   
    72   66   72 1   
    73   66   73 1   
    74   74   75 1   
    75   74   78 1   
    76   75   76 1   
    77   75   79 1   
    78   75   80 1   
    79   76   77 2   
    80   76   81 1   
    81   81   82 1   
    82   81   93 1   
    83   82   83 1   
    84   82   85 1   
    85   82   94 1   
    86   83   84 2   
    87   83  102 1   
    88   85   86 1   
    89   85   95 1   
    90   85   96 1   
    91   86   87 ar  
    92   86   88 ar  
    93   87   89 ar  
    94   87   97 1   
    95   88   90 ar  
    96   88   98 1   
    97   89   91 ar  
    98   89   99 1   
    99   90   91 ar  
   100   90  100 1   
   101   91   92 1   
   102   92  101 1   
   103  102  103 1   
   104  102  110 1   
   105  103  104 1   
   106  103  106 1   
   107  103  111 1   
   108  104  105 2   
   109  104  121 1   
   110  106  107 1   
   111  106  108 1   
   112  106  112 1   
   113  107  109 1   
   114  107  113 1   
   115  107  114 1   
   116  108  115 1   
   117  108  116 1   
   118  108  117 1   
   119  109  118 1   
   120  109  119 1   
   121  109  120 1   
   122  121  122 1   
   123  121  127 1   
   124  122  123 1   
   125  122  125 1   
   126  122  128 1   
   127  123  124 2   
   128  123  132 1   
   129  125  126 1   
   130  125  129 1   
   131  125  130 1   
   132  126  131 1   
   133  132  133 1   
   134  132  137 1   
   135  133  134 1   
   136  133  136 1   
   137  133  138 1   
   138  134  135 2   
   139  134  142 1   
   140  136  139 1   
   141  136  140 1   
   142  136  141 1   
   143  142  143 1   
   144  142  147 1   
   145  143  144 1   
   146  143  146 1   
   147  143  148 1   
   148  144  145 2   
   149  144  152 1   
   150  146  149 1   
   151  146  150 1   
   152  146  151 1   
   153  152  153 1   
   154  152  161 1   
   155  153  154 1   
   156  153  156 1   
   157  153  162 1   
   158  154  155 2   
   159  154  167 1   
   160  156  157 1   
   161  156  163 1   
   162  156  164 1   
   163  157  158 1   
   164  157  165 1   
   165  157  166 1   
   166  158  159 1   
   167  158  160 1   
   168  167  168 1   
   169  167  172 1   
   170  168  169 1   
   171  168  170 1   
   172  168  171 1   
   173  174  176 1   
   174  174  178 1   
   175  175  177 1   
   176  175  179 1   
   177  180  181 1   
   178  180  182 1   
   179  183  184 1   
   180  183  185 1   
   181  186  187 1   
   182  186  188 1   
   183  189  190 1   
   184  189  191 1   
@<TRIPOS>SUBSTRUCTURE
     1 MOL         1 TEMP              0 ****  ****    0 ROOT
