@<TRIPOS>MOLECULE
MOL
  195   189     1     0     0
SMALL
resp


@<TRIPOS>ATOM
      1 C1         12.6480    4.5080   -2.6970 c3        1 MOL     -0.299756
      2 C2         12.4180    3.2380   -1.9610 c         1 MOL      0.607779
      3 O1         13.3440    2.4440   -1.8040 o         1 MOL     -0.572267
      4 H1         12.6230    5.3430   -1.9970 hc        1 MOL      0.080349
      5 H2         13.6220    4.4740   -3.1860 hc        1 MOL      0.080349
      6 H3         11.8690    4.6400   -3.4480 hc        1 MOL      0.080349
      7 N1         11.2370    3.0770   -1.3490 n         1 MOL     -0.182337
      8 C3         10.8540    1.9210   -0.4830 c3        1 MOL     -0.428693
      9 C4          9.4440    1.4300   -0.7760 c         1 MOL      0.413261
     10 O2          8.4830    2.1910   -1.0620 o         1 MOL     -0.491719
     11 C5         10.9710    2.3740    0.9930 c3        1 MOL      0.104002
     12 C6         10.1910    3.6620    1.2790 c         1 MOL      0.637349
     13 O3         10.2560    4.1850    2.3990 o         1 MOL     -0.695641
     14 O4          9.4750    4.2090    0.3590 o         1 MOL     -0.695641
     15 H4         10.4900    3.7270   -1.5130 hn        1 MOL      0.101612
     16 H5         11.4740    1.0440   -0.6670 h1        1 MOL      0.135767
     17 H6         12.0000    2.6550    1.1850 hc        1 MOL      0.047751
     18 H7         10.7410    1.5390    1.6540 hc        1 MOL      0.047751
     19 N2          9.3080    0.1130   -0.6610 n         1 MOL     -0.014176
     20 C7          8.0460   -0.6170   -0.9370 c3        1 MOL     -0.495990
     21 C8          7.0240   -0.6130    0.1770 c         1 MOL      0.691918
     22 O5          7.1590   -1.2700    1.1710 o         1 MOL     -0.538103
     23 C9          8.4240   -1.9400   -1.5460 c3        1 MOL     -0.097611
     24 C10         7.3620   -2.6990   -2.2600 c3        1 MOL      0.248739
     25 C11         7.9320   -3.7220   -3.1730 c3        1 MOL     -0.250564
     26 C12         6.8250   -4.6650   -3.6590 c3        1 MOL      0.142332
     27 N3          7.3290   -5.7020   -4.5950 n4        1 MOL     -0.259954
     28 H8         10.1400   -0.4500   -0.6300 hn        1 MOL      0.233133
     29 H9          7.5340   -0.0350   -1.7100 h1        1 MOL      0.126059
     30 H10         8.8920   -2.6270   -0.8390 hc        1 MOL      0.070435
     31 H11         9.2800   -1.7990   -2.2160 hc        1 MOL      0.070435
     32 H12         6.7260   -2.0190   -2.8220 hc        1 MOL      0.007813
     33 H13         6.7320   -3.1970   -1.5340 hc        1 MOL      0.007813
     34 H14         8.6380   -4.3230   -2.6060 hc        1 MOL      0.060878
     35 H15         8.3660   -3.2040   -4.0280 hc        1 MOL      0.060878
     36 H16         6.0640   -4.0690   -4.1590 hx        1 MOL      0.060014
     37 H17         6.3170   -5.1680   -2.8400 hx        1 MOL      0.060014
     38 H18         6.7040   -6.4670   -4.8030 hn        1 MOL      0.298005
     39 H19         7.7090   -5.4250   -5.4920 hn        1 MOL      0.298005
     40 H20         8.1940   -6.0070   -4.1730 hn        1 MOL      0.298005
     41 N4          6.0450    0.2550    0.0860 n         1 MOL     -0.571285
     42 C13         4.8760    0.1770    0.9870 c3        1 MOL      0.218190
     43 C14         3.5810    0.3460    0.2200 c         1 MOL      0.362130
     44 O6          3.4280    0.8280   -0.8920 o         1 MOL     -0.491400
     45 C15         4.9650    1.2820    1.9980 c3        1 MOL     -0.081057
     46 C16         5.6010    2.5900    1.4280 c         1 MOL      0.532840
     47 O7          4.8410    3.3200    0.7440 o         1 MOL     -0.617282
     48 O8          6.8230    2.8620    1.5730 o         1 MOL     -0.617282
     49 H21         6.1360    0.9670   -0.6220 hn        1 MOL      0.353911
     50 H22         4.9220   -0.7260    1.5920 h1        1 MOL      0.129485
     51 H23         5.5400    0.8810    2.8330 hc        1 MOL      0.024020
     52 H24         4.0140    1.4820    2.4950 hc        1 MOL      0.024020
     53 N5          2.4880   -0.1230    0.8920 n         1 MOL     -0.431074
     54 C17         2.5270   -0.8770    2.2390 c3        1 MOL     -0.083856
     55 C18         2.9860   -2.3470    2.2800 c         1 MOL      0.371414
     56 O9          3.3860   -2.8770    1.2020 o         1 MOL     -0.536186
     57 H25         1.6120   -0.1250    0.4020 hn        1 MOL      0.334824
     58 H26         1.5230   -0.9330    2.6770 h1        1 MOL      0.091532
     59 H27         3.0930   -0.2930    2.9730 h1        1 MOL      0.091532
     60 N6          3.0450   -2.9280    3.4760 n         1 MOL     -0.279869
     61 C19         3.5500   -4.2760    3.7520 c3        1 MOL      0.103074
     62 C20         2.3900   -5.3070    3.4400 c         1 MOL      0.392170
     63 O10         2.5740   -6.3150    2.7630 o         1 MOL     -0.575202
     64 C21         3.9680   -4.4460    5.2540 c3        1 MOL     -0.347299
     65 C22         3.0250   -3.8000    6.3040 c         1 MOL      0.680057
     66 O11         1.8280   -3.6260    6.0060 o         1 MOL     -0.664495
     67 O12         3.4000   -3.4320    7.4280 o         1 MOL     -0.664495
     68 H28         2.6350   -2.3810    4.2290 hn        1 MOL      0.247480
     69 H29         4.4110   -4.5260    3.1340 h1        1 MOL      0.068055
     70 H30         4.9030   -3.9220    5.4210 hc        1 MOL      0.090979
     71 H31         4.1890   -5.4770    5.5340 hc        1 MOL      0.090979
     72 N7          1.1680   -4.8680    3.7150 n         1 MOL      0.009051
     73 C23        -0.1280   -5.4310    3.3960 c3        1 MOL     -0.277714
     74 C24        -0.6410   -5.2000    1.9300 c         1 MOL      0.677035
     75 O13        -1.7130   -5.6570    1.5860 o         1 MOL     -0.599704
     76 H32         1.2720   -4.1110    4.3700 hn        1 MOL      0.120307
     77 H33        -0.7630   -4.9470    4.1280 h1        1 MOL      0.118700
     78 H34        -0.1640   -6.5160    3.5200 h1        1 MOL      0.118700
     79 N8          0.0860   -4.4380    1.0830 n         1 MOL     -0.449327
     80 C25        -0.2950   -4.1340   -0.3260 c3        1 MOL      0.415342
     81 C26        -0.3040   -2.6420   -0.5150 c         1 MOL      0.313446
     82 O14        -0.2000   -1.8700    0.4090 o         1 MOL     -0.452403
     83 C27         0.6600   -4.8780   -1.2960 c3        1 MOL      0.264129
     84 C28         0.8740   -6.3220   -0.9010 c3        1 MOL     -0.379740
     85 O15         0.1450   -4.9310   -2.6250 oh        1 MOL     -0.668542
     86 H35         0.9330   -4.0240    1.4520 hn        1 MOL      0.163409
     87 H36        -1.3140   -4.4900   -0.4740 h1        1 MOL     -0.004218
     88 H37         1.6320   -4.4120   -1.4450 h1        1 MOL     -0.010333
     89 H38         0.8820   -5.2460   -3.1530 ho        1 MOL      0.416085
     90 H39        -0.0910   -6.8100   -0.7920 hc        1 MOL      0.097640
     91 H40         1.4190   -6.7860   -1.7250 hc        1 MOL      0.097640
     92 H41         1.3390   -6.4090    0.0800 hc        1 MOL      0.097640
     93 N9         -0.6170   -2.1600   -1.7550 n         1 MOL     -0.290689
     94 C29        -1.1440   -0.8710   -2.1340 c3        1 MOL      0.087293
     95 C30        -2.5740   -0.5130   -1.5490 c         1 MOL      0.527886
     96 O16        -2.8170    0.6390   -1.2480 o         1 MOL     -0.520776
     97 C31        -1.1440   -0.5820   -3.6630 c3        1 MOL      0.200122
     98 C32         0.0060   -1.2610   -4.4410 c3        1 MOL      0.050401
     99 C33        -1.0920    0.9300   -3.9760 c3        1 MOL     -0.428843
    100 C34         1.3800   -0.7000   -4.0850 c3        1 MOL     -0.126244
    101 H42        -0.6420   -2.8300   -2.5090 hn        1 MOL      0.178879
    102 H43        -0.5470   -0.1000   -1.6440 h1        1 MOL      0.007856
    103 H44        -2.1000   -0.9900   -3.9810 hc        1 MOL     -0.054180
    104 H45        -0.1490   -1.0460   -5.4970 hc        1 MOL     -0.023273
    105 H46        -0.0100   -2.3430   -4.3080 hc        1 MOL     -0.023273
    106 H47        -0.5050    1.1870   -4.8540 hc        1 MOL      0.121198
    107 H48        -2.1020    1.3350   -4.0670 hc        1 MOL      0.121198
    108 H49        -0.5770    1.4790   -3.1870 hc        1 MOL      0.121198
    109 H50         1.4020    0.3920   -4.0530 hc        1 MOL      0.021605
    110 H51         1.6750   -1.1200   -3.1240 hc        1 MOL      0.021605
    111 H52         2.0600   -1.1420   -4.8090 hc        1 MOL      0.021605
    112 N10        -3.5680   -1.4510   -1.6920 n         1 MOL     -0.397487
    113 C35        -4.7600   -1.3990   -0.8680 c3        1 MOL     -0.073517
    114 C36        -5.9770   -1.9970   -1.6230 c         1 MOL      0.671893
    115 O17        -5.8060   -2.7950   -2.5510 o         1 MOL     -0.525148
    116 C37        -4.5700   -2.2390    0.3850 c3        1 MOL      0.212997
    117 C38        -4.1400   -3.6820    0.1500 c3        1 MOL     -0.272000
    118 O18        -3.4950   -1.6780    1.1560 oh        1 MOL     -0.582684
    119 H53        -3.3210   -2.2960   -2.1840 hn        1 MOL      0.237652
    120 H54        -4.9520   -0.3730   -0.5730 h1        1 MOL      0.094723
    121 H55        -5.4850   -2.2070    0.9660 h1        1 MOL      0.027039
    122 H56        -3.6040   -0.7450    1.3370 ho        1 MOL      0.410181
    123 H57        -3.2290   -3.6910   -0.4500 hc        1 MOL      0.100410
    124 H58        -3.9940   -4.1240    1.1370 hc        1 MOL      0.100410
    125 H59        -4.8630   -4.3120   -0.3710 hc        1 MOL      0.100410
    126 N11        -7.2420   -1.6600   -1.2430 n         1 MOL     -0.703658
    127 C39        -8.4480   -1.9190   -2.1180 c3        1 MOL      0.034339
    128 C40        -9.3280   -0.6180   -2.4080 c         1 MOL      0.612756
    129 O19        -9.6310   -0.3210   -3.5560 o         1 MOL     -0.546333
    130 C41        -9.3460   -3.1160   -1.5660 c3        1 MOL      0.303895
    131 C42       -10.4610   -3.3880   -2.6300 c3        1 MOL     -0.499807
    132 O20        -9.9810   -2.7230   -0.3470 oh        1 MOL     -0.589889
    133 H60        -7.2970   -1.1730   -0.3670 hn        1 MOL      0.326296
    134 H61        -8.0840   -2.3220   -3.0630 h1        1 MOL      0.108366
    135 H62        -8.8190   -4.0480   -1.3620 h1        1 MOL      0.043432
    136 H63        -9.3280   -2.8120    0.3400 ho        1 MOL      0.370715
    137 H64        -9.9070   -3.5410   -3.5500 hc        1 MOL      0.140437
    138 H65       -11.1090   -4.2170   -2.3670 hc        1 MOL      0.140437
    139 H66       -11.1290   -2.5240   -2.7130 hc        1 MOL      0.140437
    140 N12        -9.4580    0.2330   -1.3380 n         1 MOL     -0.396098
    141 C43       -10.2320    1.4940   -1.1630 c3        1 MOL      0.041051
    142 C44        -9.7490    2.1520    0.1590 c         1 MOL      0.490817
    143 O21        -9.2700    1.4310    1.0040 o         1 MOL     -0.483492
    144 C45       -11.7430    1.2850   -1.2540 c3        1 MOL     -0.143143
    145 C46       -12.3590    0.5700   -0.0120 c3        1 MOL      0.083335
    146 C47       -13.7930    0.0080   -0.1560 c3        1 MOL     -0.126155
    147 C48       -14.3980   -0.7570    0.9940 c3        1 MOL      0.132607
    148 N13       -15.7920   -0.9940    0.8130 n4        1 MOL     -0.294127
    149 H67        -9.0710   -0.1170   -0.4790 hn        1 MOL      0.232681
    150 H68       -10.0160    2.0850   -2.0460 h1        1 MOL      0.074856
    151 H69       -11.9090    0.7710   -2.2040 hc        1 MOL      0.058829
    152 H70       -12.1760    2.2810   -1.2960 hc        1 MOL      0.058829
    153 H71       -12.3710    1.2880    0.8160 hc        1 MOL      0.010517
    154 H72       -11.6960   -0.2470    0.2680 hc        1 MOL      0.010517
    155 H73       -13.8000   -0.6550   -1.0240 hc        1 MOL      0.041370
    156 H74       -14.4590    0.8190   -0.4490 hc        1 MOL      0.041370
    157 H75       -14.3170   -0.2770    1.9770 hx        1 MOL      0.058080
    158 H76       -13.8420   -1.6790    1.1450 hx        1 MOL      0.058080
    159 H77       -16.2470   -1.4340    1.5930 hn        1 MOL      0.251476
    160 H78       -16.1280   -0.0510    0.6650 hn        1 MOL      0.251476
    161 H79       -15.9060   -1.5720   -0.0050 hn        1 MOL      0.251476
    162 N14        -9.9120    3.4520    0.2320 n         1 MOL     -0.548494
    163 C49        -9.1900    4.2570    1.2840 c3        1 MOL      0.386010
    164 C50        -7.6490    3.9770    1.3400 c         1 MOL      0.195280
    165 O22        -7.1740    3.6260    2.4380 o         1 MOL     -0.493074
    166 C51        -9.5410    5.7610    1.0340 c3        1 MOL     -0.362464
    167 C52        -8.7140    6.7070    1.9040 c3        1 MOL      0.013230
    168 C53        -9.2700    8.1050    2.0810 c         1 MOL      0.644379
    169 O23        -9.2480    8.9110    1.0670 o         1 MOL     -0.642294
    170 O24        -9.5540    8.5230    3.2340 o         1 MOL     -0.642294
    171 H80       -10.3410    3.9810   -0.5190 hn        1 MOL      0.301712
    172 H81        -9.6130    4.0220    2.2620 h1        1 MOL      0.056487
    173 H82       -10.5660    5.9280    1.3710 hc        1 MOL      0.084885
    174 H83        -9.3680    6.0680    0.0060 hc        1 MOL      0.084885
    175 H84        -7.7170    6.8570    1.4940 hc        1 MOL      0.015011
    176 H85        -8.6330    6.2210    2.8740 hc        1 MOL      0.015011
    177 N15        -6.8800    3.9580    0.2690 n         1 MOL     -0.156874
    178 C54        -7.1420    4.0300   -1.1920 c3        1 MOL     -0.128478
    179 H86        -7.2950    3.0250   -1.5840 h1        1 MOL      0.074888
    180 H87        -8.0350    4.6290   -1.3720 h1        1 MOL      0.074888
    181 H88        -6.2890    4.4890   -1.6930 h1        1 MOL      0.074888
    182 H89        -5.9180    3.8450    0.5830 hn        1 MOL      0.252019
    183 Ca1         6.9430    4.5680   -0.4670 Ca        1 MOL      1.746512
    184 O25         7.6850    5.5000    2.0010 oh        1 MOL     -0.917721
    185 H90         8.6240    5.3580    1.9350 ho        1 MOL      0.444894
    186 H91         7.3680    4.7790    2.5450 ho        1 MOL      0.444894
    187 O26         5.7460    2.5940   -2.0590 oh        1 MOL     -0.917721
    188 H92         6.1820    2.5710   -2.9080 ho        1 MOL      0.444894
    189 H93         4.8270    2.7670   -2.2610 ho        1 MOL      0.444894
    190 O27         4.7950    5.2180   -2.2480 oh        1 MOL     -0.917721
    191 H94         3.9800    4.7220   -2.1590 ho        1 MOL      0.444894
    192 H95         4.5260    6.1370   -2.2540 ho        1 MOL      0.444894
    193 O28         5.2930    6.2370    0.7560 oh        1 MOL     -0.917721
    194 H96         4.5970    6.8630    0.6060 ho        1 MOL      0.444894
    195 H97         5.9180    6.6910    1.3190 ho        1 MOL      0.444894
@<TRIPOS>BOND
     1    1    2 1   
     2    1    4 1   
     3    1    5 1   
     4    1    6 1   
     5    2    3 2   
     6    2    7 1   
     7    7    8 1   
     8    7   15 1   
     9    8    9 1   
    10    8   11 1   
    11    8   16 1   
    12    9   10 2   
    13    9   19 1   
    14   11   12 1   
    15   11   17 1   
    16   11   18 1   
    17   12   13 1   
    18   12   14 1   
    19   19   20 1   
    20   19   28 1   
    21   20   21 1   
    22   20   23 1   
    23   20   29 1   
    24   21   22 2   
    25   21   41 1   
    26   23   24 1   
    27   23   30 1   
    28   23   31 1   
    29   24   25 1   
    30   24   32 1   
    31   24   33 1   
    32   25   26 1   
    33   25   34 1   
    34   25   35 1   
    35   26   27 1   
    36   26   36 1   
    37   26   37 1   
    38   27   38 1   
    39   27   39 1   
    40   27   40 1   
    41   41   42 1   
    42   41   49 1   
    43   42   43 1   
    44   42   45 1   
    45   42   50 1   
    46   43   44 2   
    47   43   53 1   
    48   45   46 1   
    49   45   51 1   
    50   45   52 1   
    51   46   47 1   
    52   46   48 1   
    53   53   54 1   
    54   53   57 1   
    55   54   55 1   
    56   54   58 1   
    57   54   59 1   
    58   55   56 2   
    59   55   60 1   
    60   60   61 1   
    61   60   68 1   
    62   61   62 1   
    63   61   64 1   
    64   61   69 1   
    65   62   63 2   
    66   62   72 1   
    67   64   65 1   
    68   64   70 1   
    69   64   71 1   
    70   65   66 1   
    71   65   67 1   
    72   72   73 1   
    73   72   76 1   
    74   73   74 1   
    75   73   77 1   
    76   73   78 1   
    77   74   75 2   
    78   74   79 1   
    79   79   80 1   
    80   79   86 1   
    81   80   81 1   
    82   80   83 1   
    83   80   87 1   
    84   81   82 2   
    85   81   93 1   
    86   83   84 1   
    87   83   85 1   
    88   83   88 1   
    89   84   90 1   
    90   84   91 1   
    91   84   92 1   
    92   85   89 1   
    93   93   94 1   
    94   93  101 1   
    95   94   95 1   
    96   94   97 1   
    97   94  102 1   
    98   95   96 2   
    99   95  112 1   
   100   97   98 1   
   101   97   99 1   
   102   97  103 1   
   103   98  100 1   
   104   98  104 1   
   105   98  105 1   
   106   99  106 1   
   107   99  107 1   
   108   99  108 1   
   109  100  109 1   
   110  100  110 1   
   111  100  111 1   
   112  112  113 1   
   113  112  119 1   
   114  113  114 1   
   115  113  116 1   
   116  113  120 1   
   117  114  115 2   
   118  114  126 1   
   119  116  117 1   
   120  116  118 1   
   121  116  121 1   
   122  117  123 1   
   123  117  124 1   
   124  117  125 1   
   125  118  122 1   
   126  126  127 1   
   127  126  133 1   
   128  127  128 1   
   129  127  130 1   
   130  127  134 1   
   131  128  129 2   
   132  128  140 1   
   133  130  131 1   
   134  130  132 1   
   135  130  135 1   
   136  131  137 1   
   137  131  138 1   
   138  131  139 1   
   139  132  136 1   
   140  140  141 1   
   141  140  149 1   
   142  141  142 1   
   143  141  144 1   
   144  141  150 1   
   145  142  143 2   
   146  142  162 1   
   147  144  145 1   
   148  144  151 1   
   149  144  152 1   
   150  145  146 1   
   151  145  153 1   
   152  145  154 1   
   153  146  147 1   
   154  146  155 1   
   155  146  156 1   
   156  147  148 1   
   157  147  157 1   
   158  147  158 1   
   159  148  159 1   
   160  148  160 1   
   161  148  161 1   
   162  162  163 1   
   163  162  171 1   
   164  163  164 1   
   165  163  166 1   
   166  163  172 1   
   167  164  165 2   
   168  164  177 1   
   169  166  167 1   
   170  166  173 1   
   171  166  174 1   
   172  167  168 1   
   173  167  175 1   
   174  167  176 1   
   175  168  169 1   
   176  168  170 1   
   177  177  178 1   
   178  177  182 1   
   179  178  179 1   
   180  178  180 1   
   181  178  181 1   
   182  184  185 1   
   183  184  186 1   
   184  187  188 1   
   185  187  189 1   
   186  190  191 1   
   187  190  192 1   
   188  193  194 1   
   189  193  195 1   
@<TRIPOS>SUBSTRUCTURE
     1 MOL         1 TEMP              0 ****  ****    0 ROOT
