@<TRIPOS>MOLECULE
MOL
  192   187     1     0     0
SMALL
resp


@<TRIPOS>ATOM
      1 C1         -6.2500   -3.3380    5.1230 c3        1 MOL     -0.270548
      2 C2         -5.5930   -2.7610    3.8280 c         1 MOL      0.692311
      3 O1         -4.9760   -3.5320    3.0630 o         1 MOL     -0.593561
      4 H1         -7.3260   -3.4280    4.9750 hc        1 MOL      0.064664
      5 H2         -5.8300   -4.3210    5.3370 hc        1 MOL      0.064664
      6 H3         -6.0530   -2.6680    5.9600 hc        1 MOL      0.064664
      7 N1         -5.7460   -1.4690    3.7270 n         1 MOL     -0.548485
      8 C3         -5.4410   -0.6310    2.5620 c3        1 MOL      0.376579
      9 C4         -3.9200   -0.6450    2.1170 c         1 MOL     -0.126168
     10 O2         -3.6290    0.0990    1.1640 o         1 MOL     -0.101249
     11 C5         -5.9630    0.8250    2.6470 c3        1 MOL     -0.067286
     12 C6         -7.4160    0.9050    3.0580 c         1 MOL      0.639232
     13 O3         -7.6950    0.3620    4.1930 o         1 MOL     -0.688776
     14 O4         -8.2450    1.4540    2.2940 o         1 MOL     -0.688776
     15 H4         -6.2080   -1.0600    4.5290 hn        1 MOL      0.280092
     16 H5         -5.9850   -1.0070    1.6900 h1        1 MOL      0.051509
     17 H6         -5.7830    1.3990    1.7320 hc        1 MOL     -0.043468
     18 H7         -5.4020    1.2980    3.4630 hc        1 MOL     -0.043468
     19 N2         -3.0240   -1.3540    2.8180 n         1 MOL     -0.088551
     20 C7         -1.5590   -1.3560    2.6320 c3        1 MOL      0.049079
     21 C8         -1.1120   -2.6530    2.0330 c         1 MOL      0.287015
     22 O5         -1.6790   -3.7500    2.3870 o         1 MOL     -0.459128
     23 C9         -0.8550   -0.8990    3.9820 c3        1 MOL     -0.172074
     24 C10        -1.2970    0.4970    4.4650 c3        1 MOL     -0.003615
     25 C11        -0.3440    1.1680    5.5330 c3        1 MOL     -0.098918
     26 C12         1.0430    1.5290    5.0500 c3        1 MOL     -0.036477
     27 N3          1.0330    2.4270    3.8460 n4        1 MOL     -0.338433
     28 H8         -3.3740   -2.0410    3.4610 hn        1 MOL      0.200216
     29 H9         -1.3430   -0.5320    1.9530 h1        1 MOL      0.210097
     30 H10         0.2240   -1.0140    3.9110 hc        1 MOL      0.079438
     31 H11        -1.1660   -1.5930    4.7660 hc        1 MOL      0.079438
     32 H12        -2.2320    0.3830    5.0110 hc        1 MOL      0.010648
     33 H13        -1.3940    1.2470    3.6860 hc        1 MOL      0.010648
     34 H14        -0.3040    0.4150    6.3110 hc        1 MOL      0.069678
     35 H15        -0.7900    2.0340    6.0200 hc        1 MOL      0.069678
     36 H16         1.4760    0.5790    4.7110 hx        1 MOL      0.093373
     37 H17         1.5870    1.9040    5.9220 hx        1 MOL      0.093373
     38 H18         0.4290    3.2100    4.0340 hn        1 MOL      0.316944
     39 H19         1.9330    2.8480    3.6960 hn        1 MOL      0.316944
     40 H20         0.7130    1.9640    3.0020 hn        1 MOL      0.316944
     41 N4         -0.1690   -2.6420    1.0980 n         1 MOL     -0.060428
     42 C13         0.5700   -1.4720    0.5030 c3        1 MOL     -0.362768
     43 C14         1.1400   -0.3910    1.4930 c         1 MOL      0.707862
     44 O6          0.5520    0.6630    1.7750 o         1 MOL     -0.625080
     45 C15        -0.2130   -0.8220   -0.6470 c3        1 MOL     -0.328634
     46 C16        -0.0560   -1.4410   -2.0520 c         1 MOL      0.605993
     47 O7          0.4620   -2.5810   -2.1890 o         1 MOL     -0.669360
     48 O8         -0.4630   -0.7420   -3.0280 o         1 MOL     -0.669360
     49 H21         0.0360   -3.4910    0.5950 hn        1 MOL      0.093776
     50 H22         1.4400   -1.7960   -0.0690 h1        1 MOL      0.126143
     51 H23         0.1420    0.1930   -0.8130 hc        1 MOL      0.160505
     52 H24        -1.2850   -0.7450   -0.4390 hc        1 MOL      0.160505
     53 N5          2.3620   -0.5760    2.0610 n         1 MOL     -0.336354
     54 C17         3.3010   -1.6510    1.9370 c3        1 MOL     -0.121408
     55 C18         4.3980   -1.7100    3.0170 c         1 MOL      0.611276
     56 O9          4.3160   -1.0130    4.0390 o         1 MOL     -0.562895
     57 H25         2.7280    0.2080    2.5880 hn        1 MOL      0.252802
     58 H26         3.7650   -1.6400    0.9460 h1        1 MOL      0.098683
     59 H27         2.7790   -2.5950    2.1140 h1        1 MOL      0.098683
     60 N6          5.3100   -2.7070    2.9070 n         1 MOL     -0.461273
     61 C19         5.5250   -3.7410    1.8910 c3        1 MOL      0.188747
     62 C20         6.5030   -3.2870    0.7750 c         1 MOL      0.301962
     63 O10         7.5700   -2.8240    1.2240 o         1 MOL     -0.409599
     64 C21         5.9690   -5.0630    2.5960 c3        1 MOL     -0.190343
     65 C22         7.4130   -4.9500    3.2220 c         1 MOL      0.726573
     66 O11         8.3430   -5.6050    2.7560 o         1 MOL     -0.629018
     67 O12         7.6240   -4.2810    4.2440 o         1 MOL     -0.629018
     68 H28         5.8220   -2.8570    3.7580 hn        1 MOL      0.268721
     69 H29         4.5740   -4.0000    1.4410 h1        1 MOL     -0.043653
     70 H30         6.0480   -5.8170    1.8130 hc        1 MOL      0.021407
     71 H31         5.2210   -5.3090    3.3480 hc        1 MOL      0.021407
     72 N7          6.2060   -3.4890   -0.4850 n         1 MOL     -0.111403
     73 C23         6.9830   -2.7860   -1.4760 c3        1 MOL     -0.397742
     74 C24         6.6040   -1.3550   -1.9240 c         1 MOL      0.638708
     75 O13         7.4290   -0.6970   -2.5130 o         1 MOL     -0.532887
     76 H32         5.3940   -4.0100   -0.7680 hn        1 MOL      0.185201
     77 H33         6.9370   -3.4310   -2.3560 h1        1 MOL      0.164580
     78 H34         7.9940   -2.8010   -1.0830 h1        1 MOL      0.164580
     79 N8          5.3900   -0.7780   -1.5350 n         1 MOL     -0.434058
     80 C25         5.0780    0.6100   -2.0050 c3        1 MOL      0.114321
     81 C26         4.9210    1.5650   -0.8390 c         1 MOL      0.574500
     82 O14         4.4800    1.0410    0.2200 o         1 MOL     -0.544127
     83 C27         3.7210    0.6500   -2.8240 c3        1 MOL      0.233963
     84 C28         3.9150   -0.0000   -4.1890 c3        1 MOL     -0.334569
     85 O15         3.3690    1.9960   -3.0060 oh        1 MOL     -0.613558
     86 H35         4.6370   -1.3580   -1.1770 hn        1 MOL      0.195562
     87 H36         5.8590    1.0660   -2.6090 h1        1 MOL      0.057691
     88 H37         2.9390    0.2100   -2.2150 h1        1 MOL      0.098586
     89 H38         2.4160    1.9770   -3.0920 ho        1 MOL      0.443831
     90 H39         2.9680   -0.0640   -4.7350 hc        1 MOL      0.083434
     91 H40         4.6500    0.5100   -4.8070 hc        1 MOL      0.083434
     92 H41         4.3410   -0.9980   -4.1290 hc        1 MOL      0.083434
     93 N9          5.3730    2.8270   -0.9700 n         1 MOL     -0.347658
     94 C29         5.4820    3.7320    0.1580 c3        1 MOL     -0.313760
     95 C30         4.1260    4.4480    0.5740 c         1 MOL      0.525203
     96 O16         4.0760    5.2400    1.5050 o         1 MOL     -0.536866
     97 C31         6.5150    4.8490   -0.1780 c3        1 MOL      0.235683
     98 C32         6.1560    5.7010   -1.4640 c3        1 MOL      0.238631
     99 C33         8.0110    4.3740   -0.4930 c3        1 MOL     -0.188057
    100 C34         6.7270    7.1380   -1.3720 c3        1 MOL     -0.284207
    101 H42         5.3350    3.2570   -1.8870 hn        1 MOL      0.306090
    102 H43         5.7600    3.1210    1.0270 h1        1 MOL      0.181726
    103 H44         6.6450    5.5260    0.6610 hc        1 MOL     -0.000028
    104 H45         5.0930    5.8900   -1.6280 hc        1 MOL     -0.054598
    105 H46         6.5160    5.1470   -2.3350 hc        1 MOL     -0.054598
    106 H47         8.6590    5.2310   -0.6680 hc        1 MOL      0.039688
    107 H48         8.4540    3.8450    0.3550 hc        1 MOL      0.039688
    108 H49         7.9590    3.7170   -1.3720 hc        1 MOL      0.039688
    109 H50         6.4760    7.7780   -2.2080 hc        1 MOL      0.064591
    110 H51         6.3730    7.5690   -0.4290 hc        1 MOL      0.064591
    111 H52         7.8070    7.1720   -1.2890 hc        1 MOL      0.064591
    112 N10         3.0270    4.1540   -0.1200 n         1 MOL     -0.266034
    113 C35         1.7340    4.9000   -0.0650 c3        1 MOL     -0.077426
    114 C36         0.5890    3.8920   -0.0410 c         1 MOL      0.658916
    115 O17         0.7030    2.8780   -0.7720 o         1 MOL     -0.478639
    116 C37         1.6400    5.7970   -1.3130 c3        1 MOL      0.198429
    117 C38         2.0950    5.1240   -2.6100 c3        1 MOL      0.002510
    118 O18         2.6270    6.8720   -1.1340 oh        1 MOL     -0.559052
    119 H53         3.1530    3.5640   -0.9310 hn        1 MOL      0.038254
    120 H54         1.6580    5.5640    0.7970 h1        1 MOL      0.095156
    121 H55         0.6300    6.1720   -1.4940 h1        1 MOL      0.030907
    122 H56         2.2610    7.5450   -1.7170 ho        1 MOL      0.367284
    123 H57         1.5790    4.1750   -2.6360 hc        1 MOL      0.006557
    124 H58         1.8500    5.6920   -3.5140 hc        1 MOL      0.006557
    125 H59         3.1700    4.9370   -2.6260 hc        1 MOL      0.006557
    126 N11        -0.5190    4.1230    0.6320 n         1 MOL     -0.632998
    127 C39        -1.6870    3.2610    0.6580 c3        1 MOL      0.077665
    128 C40        -2.3490    3.1570   -0.6870 c         1 MOL      0.737100
    129 O19        -2.3380    4.1310   -1.4580 o         1 MOL     -0.585970
    130 C41        -2.6330    3.5700    1.7750 c3        1 MOL      0.366063
    131 C42        -3.1970    4.9980    1.6650 c3        1 MOL     -0.559230
    132 O20        -1.9940    3.6030    3.0870 oh        1 MOL     -0.615866
    133 H60        -0.4190    4.9080    1.2610 hn        1 MOL      0.333505
    134 H61        -1.3480    2.2410    0.8640 h1        1 MOL     -0.102672
    135 H62        -3.5310    2.9550    1.7370 h1        1 MOL      0.050535
    136 H63        -2.7400    3.6060    3.6960 ho        1 MOL      0.411173
    137 H64        -3.7690    5.1780    2.5740 hc        1 MOL      0.143292
    138 H65        -2.4160    5.7410    1.5060 hc        1 MOL      0.143292
    139 H66        -3.7380    4.8310    0.7420 hc        1 MOL      0.143292
    140 N12        -2.9740    1.9950   -0.9500 n         1 MOL     -0.472950
    141 C43        -3.8450    1.7710   -2.1500 c3        1 MOL     -0.045632
    142 C44        -4.0090    0.2700   -2.5130 c         1 MOL      0.648141
    143 O21        -4.1640   -0.0890   -3.6710 o         1 MOL     -0.626364
    144 C45        -5.1440    2.5690   -1.9900 c3        1 MOL     -0.042297
    145 C46        -6.1250    2.4010   -3.1820 c3        1 MOL     -0.073015
    146 C47        -7.3450    3.3590   -2.8450 c3        1 MOL      0.017746
    147 C48        -6.9830    4.8730   -2.5350 c3        1 MOL      0.111422
    148 N13        -8.1190    5.6110   -1.9520 n4        1 MOL     -0.380506
    149 H67        -3.1640    1.4070   -0.1560 hn        1 MOL      0.109391
    150 H68        -3.3550    2.2330   -3.0080 h1        1 MOL      0.121972
    151 H69        -4.8560    3.6120   -1.8480 hc        1 MOL      0.042241
    152 H70        -5.5580    2.2280   -1.0430 hc        1 MOL      0.042241
    153 H71        -6.5600    1.4030   -3.2060 hc        1 MOL      0.054280
    154 H72        -5.6710    2.7810   -4.1030 hc        1 MOL      0.054280
    155 H73        -7.8690    2.9790   -1.9670 hc        1 MOL      0.024550
    156 H74        -8.0440    3.4300   -3.6880 hc        1 MOL      0.024550
    157 H75        -6.6820    5.4190   -3.4260 hx        1 MOL      0.049105
    158 H76        -6.1820    4.9240   -1.8010 hx        1 MOL      0.049105
    159 H77        -8.9800    5.6660   -2.4720 hn        1 MOL      0.325560
    160 H78        -8.4210    5.2160   -1.0710 hn        1 MOL      0.325560
    161 H79        -7.9050    6.5660   -1.7090 hn        1 MOL      0.325560
    162 N14        -4.0420   -0.6630   -1.4980 n         1 MOL     -0.094321
    163 C49        -4.4420   -2.0870   -1.6440 c3        1 MOL     -0.423909
    164 C50        -5.9960   -2.2260   -1.4920 c         1 MOL      0.469723
    165 O22        -6.5350   -1.9380   -0.4470 o         1 MOL     -0.424888
    166 C51        -3.6580   -3.0080   -0.7560 c3        1 MOL      0.286917
    167 C52        -3.9020   -4.4480   -1.1690 c3        1 MOL     -0.329972
    168 C53        -3.3410   -4.7130   -2.5520 c         1 MOL      0.253178
    169 O23        -4.0250   -5.2200   -3.4610 o         1 MOL     -0.571151
    170 O24        -2.1830   -4.3980   -2.8800 o         1 MOL     -0.571151
    171 H80        -3.8350   -0.3640   -0.5470 hn        1 MOL     -0.014150
    172 H81        -4.2060   -2.2760   -2.6860 h1        1 MOL      0.296414
    173 H82        -4.1060   -2.9230    0.2380 hc        1 MOL      0.000106
    174 H83        -2.5970   -2.7950   -0.6350 hc        1 MOL      0.000106
    175 H84        -4.9450   -4.7340   -1.2810 hc        1 MOL      0.140833
    176 H85        -3.5440   -5.1680   -0.4420 hc        1 MOL      0.140833
    177 N15        -6.6330   -2.7200   -2.6160 n         1 MOL     -0.378330
    178 C54        -8.0730   -3.0560   -2.6020 c3        1 MOL      0.029691
    179 H86        -8.2380   -3.9710   -3.1700 h1        1 MOL      0.040742
    180 H87        -8.4020   -3.2030   -1.5730 h1        1 MOL      0.040742
    181 H88        -8.6410   -2.2420   -3.0530 h1        1 MOL      0.040742
    182 H89        -6.0550   -3.0800   -3.3670 hn        1 MOL      0.296420
    183 Ca1         0.2300   -5.0630   -3.1470 Ca        1 MOL      1.606866
    184 O25         1.5580   -6.7970   -5.0660 oh        1 MOL     -0.875375
    185 H90         2.5120   -6.8560   -5.1290 ho        1 MOL      0.429767
    186 H91         1.2460   -7.5300   -5.5960 ho        1 MOL      0.429767
    187 O26        -0.5160   -3.0980   -4.9410 oh        1 MOL     -0.875375
    188 H92        -1.1360   -3.0960   -5.6690 ho        1 MOL      0.429767
    189 H93        -0.6200   -2.2380   -4.5360 ho        1 MOL      0.429767
    190 O27         2.2880   -3.7200   -4.2240 oh        1 MOL     -0.875375
    191 H94         1.8230   -2.8820   -4.3270 ho        1 MOL      0.429767
    192 H95         2.9430   -3.7080   -4.9200 ho        1 MOL      0.429767
@<TRIPOS>BOND
     1    1    2 1   
     2    1    4 1   
     3    1    5 1   
     4    1    6 1   
     5    2    3 2   
     6    2    7 1   
     7    7    8 1   
     8    7   15 1   
     9    8    9 1   
    10    8   11 1   
    11    8   16 1   
    12    9   10 2   
    13    9   19 1   
    14   11   12 1   
    15   11   17 1   
    16   11   18 1   
    17   12   13 1   
    18   12   14 1   
    19   19   20 1   
    20   19   28 1   
    21   20   21 1   
    22   20   23 1   
    23   20   29 1   
    24   21   22 2   
    25   21   41 1   
    26   23   24 1   
    27   23   30 1   
    28   23   31 1   
    29   24   25 1   
    30   24   32 1   
    31   24   33 1   
    32   25   26 1   
    33   25   34 1   
    34   25   35 1   
    35   26   27 1   
    36   26   36 1   
    37   26   37 1   
    38   27   38 1   
    39   27   39 1   
    40   27   40 1   
    41   41   42 1   
    42   41   49 1   
    43   42   43 1   
    44   42   45 1   
    45   42   50 1   
    46   43   44 2   
    47   43   53 1   
    48   45   46 1   
    49   45   51 1   
    50   45   52 1   
    51   46   47 1   
    52   46   48 1   
    53   53   54 1   
    54   53   57 1   
    55   54   55 1   
    56   54   58 1   
    57   54   59 1   
    58   55   56 2   
    59   55   60 1   
    60   60   61 1   
    61   60   68 1   
    62   61   62 1   
    63   61   64 1   
    64   61   69 1   
    65   62   63 2   
    66   62   72 1   
    67   64   65 1   
    68   64   70 1   
    69   64   71 1   
    70   65   66 1   
    71   65   67 1   
    72   72   73 1   
    73   72   76 1   
    74   73   74 1   
    75   73   77 1   
    76   73   78 1   
    77   74   75 2   
    78   74   79 1   
    79   79   80 1   
    80   79   86 1   
    81   80   81 1   
    82   80   83 1   
    83   80   87 1   
    84   81   82 2   
    85   81   93 1   
    86   83   84 1   
    87   83   85 1   
    88   83   88 1   
    89   84   90 1   
    90   84   91 1   
    91   84   92 1   
    92   85   89 1   
    93   93   94 1   
    94   93  101 1   
    95   94   95 1   
    96   94   97 1   
    97   94  102 1   
    98   95   96 2   
    99   95  112 1   
   100   97   98 1   
   101   97   99 1   
   102   97  103 1   
   103   98  100 1   
   104   98  104 1   
   105   98  105 1   
   106   99  106 1   
   107   99  107 1   
   108   99  108 1   
   109  100  109 1   
   110  100  110 1   
   111  100  111 1   
   112  112  113 1   
   113  112  119 1   
   114  113  114 1   
   115  113  116 1   
   116  113  120 1   
   117  114  115 2   
   118  114  126 1   
   119  116  117 1   
   120  116  118 1   
   121  116  121 1   
   122  117  123 1   
   123  117  124 1   
   124  117  125 1   
   125  118  122 1   
   126  126  127 1   
   127  126  133 1   
   128  127  128 1   
   129  127  130 1   
   130  127  134 1   
   131  128  129 2   
   132  128  140 1   
   133  130  131 1   
   134  130  132 1   
   135  130  135 1   
   136  131  137 1   
   137  131  138 1   
   138  131  139 1   
   139  132  136 1   
   140  140  141 1   
   141  140  149 1   
   142  141  142 1   
   143  141  144 1   
   144  141  150 1   
   145  142  143 2   
   146  142  162 1   
   147  144  145 1   
   148  144  151 1   
   149  144  152 1   
   150  145  146 1   
   151  145  153 1   
   152  145  154 1   
   153  146  147 1   
   154  146  155 1   
   155  146  156 1   
   156  147  148 1   
   157  147  157 1   
   158  147  158 1   
   159  148  159 1   
   160  148  160 1   
   161  148  161 1   
   162  162  163 1   
   163  162  171 1   
   164  163  164 1   
   165  163  166 1   
   166  163  172 1   
   167  164  165 2   
   168  164  177 1   
   169  166  167 1   
   170  166  173 1   
   171  166  174 1   
   172  167  168 1   
   173  167  175 1   
   174  167  176 1   
   175  168  169 1   
   176  168  170 1   
   177  177  178 1   
   178  177  182 1   
   179  178  179 1   
   180  178  180 1   
   181  178  181 1   
   182  184  185 1   
   183  184  186 1   
   184  187  188 1   
   185  187  189 1   
   186  190  191 1   
   187  190  192 1   
@<TRIPOS>SUBSTRUCTURE
     1 MOL         1 TEMP              0 ****  ****    0 ROOT
