@<TRIPOS>MOLECULE
MOL
  188   182     1     0     0
SMALL
resp


@<TRIPOS>ATOM
      1 C1         -6.6080   -2.6030    3.3420 c3        1 MOL     -0.544875
      2 C2         -6.8930   -2.3720    1.8900 c         1 MOL      0.830876
      3 O1         -6.0150   -1.8110    1.2350 o         1 MOL     -0.588126
      4 H1         -7.4870   -3.0350    3.8190 hc        1 MOL      0.133473
      5 H2         -5.7660   -3.2880    3.4440 hc        1 MOL      0.133473
      6 H3         -6.3650   -1.6530    3.8200 hc        1 MOL      0.133473
      7 N1         -8.0600   -2.7180    1.3980 n         1 MOL     -0.549732
      8 C3         -8.5520   -2.4080    0.0040 c3        1 MOL     -0.111563
      9 C4         -8.5500   -0.8820   -0.2440 c         1 MOL      0.717802
     10 O2         -8.2970   -0.4310   -1.3460 o         1 MOL     -0.566469
     11 C5         -7.9360   -3.2580   -1.1260 c3        1 MOL     -0.120139
     12 C6         -8.0900   -4.7820   -0.9440 c         1 MOL      0.694826
     13 O3         -7.3220   -5.4530   -1.6610 o         1 MOL     -0.675149
     14 O4         -9.0970   -5.2350   -0.3660 o         1 MOL     -0.675149
     15 H4         -8.8040   -3.1160    1.9470 hn        1 MOL      0.318329
     16 H5         -9.6230   -2.5910   -0.0670 h1        1 MOL      0.077510
     17 H6         -6.8760   -3.0550   -1.0250 hc        1 MOL      0.068529
     18 H7         -8.2300   -2.9670   -2.1360 hc        1 MOL      0.068529
     19 N2         -8.7470   -0.1070    0.7950 n         1 MOL     -0.578539
     20 C7         -8.7820    1.3570    0.7720 c3        1 MOL     -0.088140
     21 C8         -7.4090    2.0990    0.4050 c         1 MOL      0.595450
     22 O5         -7.3220    3.3230    0.2350 o         1 MOL     -0.582401
     23 C9         -9.4300    1.8040    2.0810 c3        1 MOL      0.149281
     24 C10        -9.4910    3.2350    2.4410 c3        1 MOL     -0.091386
     25 C11       -10.4410    4.0660    1.5300 c3        1 MOL      0.031659
     26 C12        -9.9810    5.5430    1.4590 c3        1 MOL     -0.058559
     27 N3        -10.3820    6.2560    2.7140 n4        1 MOL     -0.110364
     28 H8         -8.7810   -0.5840    1.6890 hn        1 MOL      0.272841
     29 H9         -9.4210    1.7600   -0.0050 h1        1 MOL      0.141719
     30 H10        -8.8930    1.2910    2.8800 hc        1 MOL     -0.005177
     31 H11       -10.4050    1.3800    2.3090 hc        1 MOL     -0.005177
     32 H12        -8.4690    3.6040    2.4890 hc        1 MOL      0.019917
     33 H13        -9.9470    3.2460    3.4360 hc        1 MOL      0.019917
     34 H14       -11.4870    3.9970    1.8090 hc        1 MOL      0.020321
     35 H15       -10.3880    3.5450    0.5730 hc        1 MOL      0.020321
     36 H16       -10.3860    6.0730    0.5980 hx        1 MOL      0.100145
     37 H17        -8.8940    5.5510    1.4430 hx        1 MOL      0.100145
     38 H18       -11.3560    6.5160    2.6860 hn        1 MOL      0.188606
     39 H19       -10.2610    5.7540    3.5820 hn        1 MOL      0.188606
     40 H20        -9.8700    7.1150    2.8000 hn        1 MOL      0.188606
     41 N4         -6.3320    1.3080    0.2890 n         1 MOL     -0.365559
     42 C13        -5.0070    1.8270    0.1260 c3        1 MOL      0.110424
     43 C14        -4.7320    2.0600   -1.3410 c         1 MOL      0.562759
     44 O6         -5.1880    1.2230   -2.1840 o         1 MOL     -0.422241
     45 C15        -3.9860    0.9370    0.8450 c3        1 MOL     -0.200015
     46 C16        -2.5530    1.3990    0.3970 c         1 MOL      0.949546
     47 O7         -1.8670    2.0120    1.1800 o         1 MOL     -0.858034
     48 O8         -2.0840    1.1320   -0.7190 o         1 MOL     -0.858034
     49 H21        -6.4660    0.3130    0.3550 hn        1 MOL      0.217623
     50 H22        -4.9830    2.7680    0.6790 h1        1 MOL      0.024258
     51 H23        -4.0890   -0.1160    0.5770 hc        1 MOL      0.042254
     52 H24        -4.0930    1.0700    1.9260 hc        1 MOL      0.042254
     53 N5         -4.0110    3.1370   -1.7510 n         1 MOL     -0.543837
     54 C17        -3.9310    3.6060   -3.1800 c3        1 MOL      0.111830
     55 C18        -3.2280    2.5400   -4.1450 c         1 MOL      0.348273
     56 O9         -3.2760    2.7150   -5.3510 o         1 MOL     -0.514408
     57 H25        -3.5070    3.6640   -1.0550 hn        1 MOL      0.265544
     58 H26        -3.3980    4.5640   -3.2180 h1        1 MOL      0.064549
     59 H27        -4.8510    3.9490   -3.6540 h1        1 MOL      0.064549
     60 N6         -2.3950    1.6470   -3.6340 n         1 MOL     -0.099981
     61 C19        -1.8440    0.4970   -4.2690 c3        1 MOL      0.053709
     62 C20        -2.1550   -0.7760   -3.4650 c         1 MOL      0.485111
     63 O10        -1.4970   -1.7830   -3.7080 o         1 MOL     -0.556515
     64 C21        -0.4440    0.7520   -4.8680 c3        1 MOL     -0.325555
     65 C22         0.6850    0.7570   -3.8670 c         1 MOL      0.559341
     66 N7          1.8310    0.2400   -4.1190 n         1 MOL     -0.663563
     67 O11         0.4940    1.1970   -2.7400 o         1 MOL     -0.552775
     68 H28        -2.2310    1.8310   -2.6530 hn        1 MOL      0.063774
     69 H29        -2.4570    0.3040   -5.1490 h1        1 MOL      0.100470
     70 H30        -0.5480    1.6670   -5.4560 hc        1 MOL      0.129494
     71 H31        -0.2450   -0.0550   -5.5790 hc        1 MOL      0.129494
     72 H32         2.0540    0.2070   -5.0960 hn        1 MOL      0.337474
     73 H33         2.5000    0.4300   -3.3900 hn        1 MOL      0.337474
     74 N8         -3.1980   -0.8220   -2.6290 n         1 MOL     -0.095598
     75 C23        -3.6870   -2.0280   -2.0280 c3        1 MOL     -0.392261
     76 C24        -2.8630   -2.6460   -0.8790 c         1 MOL      0.616494
     77 O12        -3.2540   -3.6880   -0.3500 o         1 MOL     -0.531261
     78 H34        -3.7830   -0.0190   -2.4500 hn        1 MOL      0.104223
     79 H35        -3.8810   -2.7290   -2.8450 h1        1 MOL      0.172790
     80 H36        -4.6220   -1.8440   -1.4960 h1        1 MOL      0.172790
     81 N9         -1.8040   -2.0390   -0.4520 n         1 MOL     -0.354170
     82 C25        -0.9590   -2.5210    0.6560 c3        1 MOL      0.008343
     83 C26         0.3340   -1.7270    0.5810 c         1 MOL      0.245688
     84 O13         0.4580   -0.5960    0.1590 o         1 MOL     -0.402146
     85 C27        -1.6440   -2.1730    2.0040 c3        1 MOL     -0.104835
     86 C28        -0.8550   -2.3340    3.3090 ca        1 MOL      0.070602
     87 C29        -0.3360   -3.5780    3.7930 ca        1 MOL     -0.209924
     88 C30        -0.6610   -1.1370    4.0770 ca        1 MOL     -0.209924
     89 C31         0.3670   -3.6920    4.9880 ca        1 MOL     -0.218614
     90 C32        -0.0630   -1.2610    5.3090 ca        1 MOL     -0.218614
     91 C33         0.5250   -2.5340    5.7670 ca        1 MOL      0.306652
     92 O14         1.1410   -2.6590    6.9820 oh        1 MOL     -0.439196
     93 H37        -1.6000   -1.1520   -0.8980 hn        1 MOL      0.259313
     94 H38        -0.8920   -3.6060    0.7140 h1        1 MOL      0.068247
     95 H39        -2.5360   -2.7810    2.1700 hc        1 MOL      0.103432
     96 H40        -1.9670   -1.1590    1.8010 hc        1 MOL      0.103432
     97 H41        -0.6420   -4.5060    3.3300 ha        1 MOL      0.160459
     98 H42        -1.0620   -0.2520    3.6250 ha        1 MOL      0.160459
     99 H43         0.7140   -4.6370    5.3840 ha        1 MOL      0.146092
    100 H44         0.0340   -0.3510    5.8770 ha        1 MOL      0.146092
    101 H45         1.0470   -1.8180    7.4410 ho        1 MOL      0.344362
    102 N10         1.4580   -2.3690    1.0690 n         1 MOL     -0.127682
    103 C34         2.7900   -1.8270    1.0530 c3        1 MOL      0.068893
    104 C35         3.3780   -1.7610   -0.3190 c         1 MOL      0.151668
    105 O15         4.2440   -0.9300   -0.5520 o         1 MOL     -0.519467
    106 C36         3.7070   -2.4000    2.1120 c3        1 MOL      0.064920
    107 C37         3.3350   -1.7500    3.4940 c3        1 MOL      0.188428
    108 C38         5.3280   -2.2160    1.8170 c3        1 MOL     -0.153448
    109 C39         3.8260   -2.3910    4.8420 c3        1 MOL     -0.275210
    110 H46         1.2180   -3.2440    1.5170 hn        1 MOL      0.193985
    111 H47         2.6730   -0.7570    1.2700 h1        1 MOL      0.037848
    112 H48         3.4660   -3.4610    2.0890 hc        1 MOL     -0.017805
    113 H49         2.2590   -1.6690    3.5470 hc        1 MOL     -0.070864
    114 H50         3.7750   -0.7590    3.3640 hc        1 MOL     -0.070864
    115 H51         5.6430   -1.1820    1.8860 hc        1 MOL      0.047710
    116 H52         5.9150   -2.8060    2.5120 hc        1 MOL      0.047710
    117 H53         5.6510   -2.5760    0.8380 hc        1 MOL      0.047710
    118 H54         3.6100   -3.4530    4.9690 hc        1 MOL      0.075327
    119 H55         4.9160   -2.2740    4.8840 hc        1 MOL      0.075327
    120 H56         3.3640   -1.8070    5.6350 hc        1 MOL      0.075327
    121 N11         3.0120   -2.6720   -1.1850 n         1 MOL      0.041579
    122 C40         3.4070   -2.7310   -2.5860 c3        1 MOL     -0.207914
    123 C41         4.9550   -2.8480   -2.7470 c         1 MOL      0.653870
    124 O16         5.4020   -2.5010   -3.8300 o         1 MOL     -0.562044
    125 C42         2.8110   -4.0050   -3.1840 c3        1 MOL     -0.018392
    126 O17         3.3830   -5.1210   -2.4970 oh        1 MOL     -0.614416
    127 H57         2.4130   -3.3840   -0.7920 hn        1 MOL      0.153875
    128 H58         3.1060   -1.8130   -3.0760 h1        1 MOL      0.116949
    129 H59         3.0100   -4.0920   -4.2520 h1        1 MOL      0.108568
    130 H60         1.7370   -4.0880   -3.0460 h1        1 MOL      0.108568
    131 H61         3.0720   -5.8400   -3.0640 ho        1 MOL      0.428849
    132 N12         5.6910   -3.3960   -1.8110 n         1 MOL     -0.272576
    133 C43         7.0900   -3.4250   -1.6740 c3        1 MOL      0.097846
    134 C44         7.7760   -2.0730   -1.4930 c         1 MOL      0.459678
    135 O18         9.0070   -2.0240   -1.3400 o         1 MOL     -0.538926
    136 C45         7.7000   -4.3900   -2.7790 c3        1 MOL     -0.359342
    137 H62         5.0840   -3.7740   -1.1060 hn        1 MOL      0.204947
    138 H63         7.1880   -3.9040   -0.6870 h1        1 MOL      0.074846
    139 H64         8.6870   -4.7700   -2.4970 hc        1 MOL      0.111627
    140 H65         7.0120   -5.2320   -2.7920 hc        1 MOL      0.111627
    141 H66         7.6570   -3.9450   -3.7750 hc        1 MOL      0.111627
    142 N13         6.9490   -1.0110   -1.4100 n         1 MOL     -0.371225
    143 C46         7.4390    0.3480   -1.4900 c3        1 MOL      0.306754
    144 C47         7.7340    1.0760   -0.1660 c         1 MOL      0.360185
    145 O19         6.9310    0.8750    0.7080 o         1 MOL     -0.430902
    146 C48         6.5480    1.1040   -2.4530 c3        1 MOL     -0.174631
    147 H67         5.9490   -1.1620   -1.3500 hn        1 MOL      0.196748
    148 H68         8.3770    0.2290   -2.0290 h1        1 MOL      0.011860
    149 H69         5.5120    0.8280   -2.2840 hc        1 MOL      0.034411
    150 H70         6.4780    2.1600   -2.2250 hc        1 MOL      0.034411
    151 H71         6.7860    0.9100   -3.5060 hc        1 MOL      0.034411
    152 N14         8.7740    1.8220   -0.0240 n         1 MOL     -0.523496
    153 C49         9.1560    2.5030    1.2160 c3        1 MOL      0.161179
    154 C50         9.3790    1.5050    2.4230 c         1 MOL      0.330550
    155 O20         9.1970    1.9190    3.5920 o         1 MOL     -0.511840
    156 C51         8.1250    3.6430    1.6360 c3        1 MOL      0.078234
    157 C52         7.9080    4.7150    0.5770 c3        1 MOL     -0.122845
    158 C53         9.0230    5.7750    0.5860 c         1 MOL      0.696351
    159 O21        10.2310    5.5100    0.9670 o         1 MOL     -0.652164
    160 O22         8.8400    6.8980    0.1230 o         1 MOL     -0.652164
    161 H72         9.4730    1.8750   -0.7540 hn        1 MOL      0.314013
    162 H73        10.1410    2.8970    0.9890 h1        1 MOL      0.028732
    163 H74         8.5720    4.1370    2.5020 hc        1 MOL     -0.013537
    164 H75         7.2790    3.0020    1.8730 hc        1 MOL     -0.013537
    165 H76         6.9890    5.2300    0.8610 hc        1 MOL     -0.026037
    166 H77         7.6530    4.2170   -0.3580 hc        1 MOL     -0.026037
    167 N15        10.0400    0.4480    2.1680 n         1 MOL     -0.149821
    168 C54        10.4000   -0.6320    3.1050 c3        1 MOL     -0.180565
    169 H78         9.6490   -0.6950    3.8920 h1        1 MOL      0.091031
    170 H79        10.4440   -1.5800    2.5690 h1        1 MOL      0.091031
    171 H80        11.3720   -0.4200    3.5490 h1        1 MOL      0.091031
    172 H81        10.4060    0.2650    1.2370 hn        1 MOL      0.219372
    173 Ca1         0.4010    2.0440   -0.1640 Ca        1 MOL      1.721685
    174 O23         2.8440    1.5120   -1.0510 oh        1 MOL     -0.782444
    175 H82         3.3700    2.1730   -1.5050 ho        1 MOL      0.399265
    176 H83         3.4760    0.8220   -0.8140 ho        1 MOL      0.399265
    177 O24         1.9460    4.1950   -1.0220 oh        1 MOL     -0.782444
    178 H84         2.6380    4.5580   -0.4550 ho        1 MOL      0.399265
    179 H85         2.3930    3.9860   -1.8430 ho        1 MOL      0.399265
    180 O25        -0.8350    3.9910   -1.5720 oh        1 MOL     -0.782444
    181 H86        -0.3640    4.8190   -1.4870 ho        1 MOL      0.399265
    182 H87        -1.7460    4.2120   -1.3820 ho        1 MOL      0.399265
    183 O26         0.7230    3.9870    1.5830 oh        1 MOL     -0.782444
    184 H88         0.2400    4.7910    1.7650 ho        1 MOL      0.399265
    185 H89         1.4520    4.0070    2.1940 ho        1 MOL      0.399265
    186 O27         2.0650    1.5350    1.8420 oh        1 MOL     -0.782444
    187 H90         1.9250    1.2690    2.7530 ho        1 MOL      0.399265
    188 H91         2.9710    1.8450    1.8190 ho        1 MOL      0.399265
@<TRIPOS>BOND
     1    1    2 1   
     2    1    4 1   
     3    1    5 1   
     4    1    6 1   
     5    2    3 2   
     6    2    7 1   
     7    7    8 1   
     8    7   15 1   
     9    8    9 1   
    10    8   11 1   
    11    8   16 1   
    12    9   10 2   
    13    9   19 1   
    14   11   12 1   
    15   11   17 1   
    16   11   18 1   
    17   12   13 1   
    18   12   14 1   
    19   19   20 1   
    20   19   28 1   
    21   20   21 1   
    22   20   23 1   
    23   20   29 1   
    24   21   22 2   
    25   21   41 1   
    26   23   24 1   
    27   23   30 1   
    28   23   31 1   
    29   24   25 1   
    30   24   32 1   
    31   24   33 1   
    32   25   26 1   
    33   25   34 1   
    34   25   35 1   
    35   26   27 1   
    36   26   36 1   
    37   26   37 1   
    38   27   38 1   
    39   27   39 1   
    40   27   40 1   
    41   41   42 1   
    42   41   49 1   
    43   42   43 1   
    44   42   45 1   
    45   42   50 1   
    46   43   44 2   
    47   43   53 1   
    48   45   46 1   
    49   45   51 1   
    50   45   52 1   
    51   46   47 1   
    52   46   48 1   
    53   53   54 1   
    54   53   57 1   
    55   54   55 1   
    56   54   58 1   
    57   54   59 1   
    58   55   56 2   
    59   55   60 1   
    60   60   61 1   
    61   60   68 1   
    62   61   62 1   
    63   61   64 1   
    64   61   69 1   
    65   62   63 2   
    66   62   74 1   
    67   64   65 1   
    68   64   70 1   
    69   64   71 1   
    70   65   66 1   
    71   65   67 2   
    72   66   72 1   
    73   66   73 1   
    74   74   75 1   
    75   74   78 1   
    76   75   76 1   
    77   75   79 1   
    78   75   80 1   
    79   76   77 2   
    80   76   81 1   
    81   81   82 1   
    82   81   93 1   
    83   82   83 1   
    84   82   85 1   
    85   82   94 1   
    86   83   84 2   
    87   83  102 1   
    88   85   86 1   
    89   85   95 1   
    90   85   96 1   
    91   86   87 ar  
    92   86   88 ar  
    93   87   89 ar  
    94   87   97 1   
    95   88   90 ar  
    96   88   98 1   
    97   89   91 ar  
    98   89   99 1   
    99   90   91 ar  
   100   90  100 1   
   101   91   92 1   
   102   92  101 1   
   103  102  103 1   
   104  102  110 1   
   105  103  104 1   
   106  103  106 1   
   107  103  111 1   
   108  104  105 2   
   109  104  121 1   
   110  106  107 1   
   111  106  108 1   
   112  106  112 1   
   113  107  109 1   
   114  107  113 1   
   115  107  114 1   
   116  108  115 1   
   117  108  116 1   
   118  108  117 1   
   119  109  118 1   
   120  109  119 1   
   121  109  120 1   
   122  121  122 1   
   123  121  127 1   
   124  122  123 1   
   125  122  125 1   
   126  122  128 1   
   127  123  124 2   
   128  123  132 1   
   129  125  126 1   
   130  125  129 1   
   131  125  130 1   
   132  126  131 1   
   133  132  133 1   
   134  132  137 1   
   135  133  134 1   
   136  133  136 1   
   137  133  138 1   
   138  134  135 2   
   139  134  142 1   
   140  136  139 1   
   141  136  140 1   
   142  136  141 1   
   143  142  143 1   
   144  142  147 1   
   145  143  144 1   
   146  143  146 1   
   147  143  148 1   
   148  144  145 2   
   149  144  152 1   
   150  146  149 1   
   151  146  150 1   
   152  146  151 1   
   153  152  153 1   
   154  152  161 1   
   155  153  154 1   
   156  153  156 1   
   157  153  162 1   
   158  154  155 2   
   159  154  167 1   
   160  156  157 1   
   161  156  163 1   
   162  156  164 1   
   163  157  158 1   
   164  157  165 1   
   165  157  166 1   
   166  158  159 1   
   167  158  160 1   
   168  167  168 1   
   169  167  172 1   
   170  168  169 1   
   171  168  170 1   
   172  168  171 1   
   173  174  175 1   
   174  174  176 1   
   175  177  178 1   
   176  177  179 1   
   177  180  181 1   
   178  180  182 1   
   179  183  184 1   
   180  183  185 1   
   181  186  187 1   
   182  186  188 1   
@<TRIPOS>SUBSTRUCTURE
     1 MOL         1 TEMP              0 ****  ****    0 ROOT
