@<TRIPOS>MOLECULE
MOL
  189   185     1     0     0
SMALL
resp


@<TRIPOS>ATOM
      1 C1        -12.0750   -6.9000   -1.8210 c3        1 MOL     -0.380060
      2 C2        -11.9430   -5.5700   -1.0070 c         1 MOL      0.639177
      3 O1        -12.8990   -4.8570   -0.7850 o         1 MOL     -0.530932
      4 H1        -12.8710   -7.5100   -1.3930 hc        1 MOL      0.103322
      5 H2        -12.3120   -6.6690   -2.8590 hc        1 MOL      0.103322
      6 H3        -11.1350   -7.4490   -1.7750 hc        1 MOL      0.103322
      7 N1        -10.6710   -5.2350   -0.5750 n         1 MOL     -0.227652
      8 C3        -10.4730   -4.0620    0.2720 c3        1 MOL     -0.333564
      9 C4         -9.2580   -3.1810   -0.2080 c         1 MOL      0.388284
     10 O2         -8.2140   -3.7040   -0.5930 o         1 MOL     -0.576999
     11 C5        -10.4420   -4.3820    1.7910 c3        1 MOL     -0.002238
     12 C6         -9.4990   -5.4470    2.2240 c         1 MOL      0.662883
     13 O3         -8.3990   -5.4570    1.6920 o         1 MOL     -0.703278
     14 O4         -9.8430   -6.3340    3.0460 o         1 MOL     -0.703278
     15 H4         -9.8530   -5.8090   -0.6630 hn        1 MOL      0.180365
     16 H5        -11.2960   -3.3630    0.1090 h1        1 MOL      0.121529
     17 H6        -11.4520   -4.7070    2.0470 hc        1 MOL      0.057592
     18 H7        -10.2150   -3.4210    2.2430 hc        1 MOL      0.057592
     19 N2         -9.3420   -1.8540   -0.0610 n         1 MOL     -0.185037
     20 C7         -8.3930   -0.9150   -0.6460 c3        1 MOL      0.008207
     21 C8         -7.4070   -0.4380    0.4660 c         1 MOL      0.775983
     22 O5         -7.9190    0.0640    1.4860 o         1 MOL     -0.581669
     23 C9         -9.0910    0.2140   -1.2740 c3        1 MOL     -0.519777
     24 C10        -8.3550    1.5360   -1.7670 c3        1 MOL      0.408562
     25 C11        -9.1720    2.6520   -2.3910 c3        1 MOL     -0.011265
     26 C12        -8.3470    3.9270   -2.5740 c3        1 MOL      0.015299
     27 N3         -9.1220    4.8660   -3.3780 n4        1 MOL     -0.202250
     28 H8        -10.1810   -1.4530    0.3380 hn        1 MOL      0.268261
     29 H9         -7.8080   -1.4160   -1.4170 h1        1 MOL      0.095674
     30 H10        -9.9000    0.5280   -0.6230 hc        1 MOL      0.134005
     31 H11        -9.5680   -0.0500   -2.2190 hc        1 MOL      0.134005
     32 H12        -7.6410    1.3200   -2.5710 hc        1 MOL     -0.064453
     33 H13        -7.8200    2.0130   -0.9480 hc        1 MOL     -0.064453
     34 H14       -10.0120    2.7860   -1.7120 hc        1 MOL     -0.007599
     35 H15        -9.5890    2.2510   -3.3110 hc        1 MOL     -0.007599
     36 H16        -7.4380    3.5490   -3.0420 hx        1 MOL      0.084839
     37 H17        -8.1340    4.2890   -1.5710 hx        1 MOL      0.084839
     38 H18        -8.7520    5.8060   -3.4660 hn        1 MOL      0.237494
     39 H19        -9.2920    4.3720   -4.2400 hn        1 MOL      0.237494
     40 H20       -10.0240    5.1200   -3.0000 hn        1 MOL      0.237494
     41 N4         -6.1420   -0.5910    0.2420 n         1 MOL     -1.087243
     42 C13        -5.0650   -0.1770    1.1030 c3        1 MOL      1.042027
     43 C14        -3.8710    0.3560    0.3870 c         1 MOL      0.152424
     44 O6         -3.6070   -0.0260   -0.7380 o         1 MOL     -0.452753
     45 C15        -4.5170   -1.2180    2.0670 c3        1 MOL     -0.112358
     46 C16        -4.3060   -2.5790    1.4500 c         1 MOL      0.869585
     47 O7         -5.2300   -3.3830    1.3670 o         1 MOL     -0.819414
     48 O8         -3.1990   -2.9570    0.9950 o         1 MOL     -0.819414
     49 H21        -6.0530   -0.8910   -0.7220 hn        1 MOL      0.312161
     50 H22        -5.4990    0.6490    1.6690 h1        1 MOL     -0.087136
     51 H23        -5.2560   -1.2510    2.8630 hc        1 MOL     -0.016821
     52 H24        -3.5900   -0.8690    2.5150 hc        1 MOL     -0.016821
     53 N5         -3.0290    1.1790    1.0160 n         1 MOL     -0.359528
     54 C17        -3.2070    1.8510    2.3540 c3        1 MOL     -0.170219
     55 C18        -2.9820    3.4010    2.3330 c         1 MOL      0.769825
     56 O9         -2.9870    3.9030    1.1950 o         1 MOL     -0.655047
     57 H25        -2.2150    1.4580    0.4840 hn        1 MOL      0.346776
     58 H26        -2.4150    1.4810    3.0180 h1        1 MOL      0.075499
     59 H27        -4.1850    1.5830    2.7520 h1        1 MOL      0.075499
     60 N6         -2.8340    4.1540    3.4010 n         1 MOL     -0.406413
     61 C19        -3.0040    5.6650    3.3380 c3        1 MOL     -0.158689
     62 C20        -1.7830    6.4590    2.7500 c         1 MOL      0.527822
     63 O10        -1.8620    7.6740    2.5750 o         1 MOL     -0.526796
     64 C21        -3.5030    6.1930    4.7250 c3        1 MOL     -0.099892
     65 C22        -2.6460    5.8660    5.8900 c         1 MOL      0.684872
     66 O11        -1.7920    6.7150    6.2490 o         1 MOL     -0.633318
     67 O12        -2.8390    4.8440    6.6020 o         1 MOL     -0.633318
     68 H28        -2.7970    3.7620    4.3290 hn        1 MOL      0.216370
     69 H29        -3.7190    5.9720    2.5880 h1        1 MOL      0.118016
     70 H30        -4.5440    5.9370    4.9400 hc        1 MOL      0.047249
     71 H31        -3.5750    7.2740    4.5780 hc        1 MOL      0.047249
     72 N7         -0.7420    5.7310    2.4010 n         1 MOL     -0.271137
     73 C23         0.5110    6.1560    1.7850 c3        1 MOL     -0.023160
     74 C24         0.5330    5.8930    0.2960 c         1 MOL      0.361034
     75 O13         1.4280    6.3730   -0.4050 o         1 MOL     -0.549402
     76 H32        -0.8380    4.7310    2.5070 hn        1 MOL      0.199239
     77 H33         1.4020    5.7510    2.2460 h1        1 MOL      0.097632
     78 H34         0.5530    7.2190    2.0100 h1        1 MOL      0.097632
     79 N8         -0.4780    5.2280   -0.2280 n         1 MOL     -0.040572
     80 C25        -0.5010    4.7090   -1.5800 c3        1 MOL      0.035471
     81 C26        -0.4390    3.2060   -1.5410 c         1 MOL      0.299343
     82 O14        -0.7210    2.5940   -0.4720 o         1 MOL     -0.562589
     83 C27        -1.8670    5.0770   -2.1880 c3        1 MOL      0.305011
     84 C28        -2.1590    6.5940   -2.0510 c3        1 MOL     -0.568805
     85 O15        -1.8620    4.8390   -3.5910 oh        1 MOL     -0.580545
     86 H35        -1.2110    5.0350    0.4380 hn        1 MOL      0.118992
     87 H36         0.3470    5.0750   -2.1530 h1        1 MOL      0.023877
     88 H37        -2.6140    4.4650   -1.6790 h1        1 MOL      0.077049
     89 H38        -1.2080    5.4520   -3.9240 ho        1 MOL      0.362581
     90 H39        -3.0080    6.7860   -2.6990 hc        1 MOL      0.149250
     91 H40        -2.2780    6.8760   -1.0090 hc        1 MOL      0.149250
     92 H41        -1.3060    7.2200   -2.3090 hc        1 MOL      0.149250
     93 N9         -0.0280    2.6130   -2.6060 n         1 MOL     -0.006045
     94 C29         0.3380    1.2050   -2.6110 c3        1 MOL     -0.088512
     95 C30         1.6450    0.8620   -1.9180 c         1 MOL      0.489074
     96 O16         1.7220   -0.2050   -1.3550 o         1 MOL     -0.522240
     97 C31         0.3700    0.6910   -4.0290 c3        1 MOL      0.226170
     98 C32        -0.8900    1.1860   -4.8670 c3        1 MOL     -0.062447
     99 C33         0.6010   -0.7920   -4.3470 c3        1 MOL     -0.388865
    100 C34        -2.1980    0.5400   -4.3500 c3        1 MOL     -0.155544
    101 H42         0.1270    3.1400   -3.4580 hn        1 MOL      0.158098
    102 H43        -0.4280    0.7090   -2.0110 h1        1 MOL      0.102792
    103 H44         1.2290    1.2430   -4.4210 hc        1 MOL     -0.081202
    104 H45        -0.7660    0.8720   -5.9050 hc        1 MOL      0.013074
    105 H46        -1.0380    2.2580   -4.7710 hc        1 MOL      0.013074
    106 H47         1.5070   -1.1560   -3.8550 hc        1 MOL      0.114214
    107 H48        -0.3270   -1.2960   -4.0770 hc        1 MOL      0.114214
    108 H49         0.6550   -0.9810   -5.4170 hc        1 MOL      0.114214
    109 H50        -3.0380    1.1870   -4.6320 hc        1 MOL      0.034699
    110 H51        -2.2340   -0.4610   -4.7840 hc        1 MOL      0.034699
    111 H52        -2.2230    0.4770   -3.2600 hc        1 MOL      0.034699
    112 N10         2.6200    1.7550   -1.7700 n         1 MOL     -0.189518
    113 C35         3.8550    1.4670   -1.0670 c3        1 MOL     -0.239996
    114 C36         5.1440    1.9730   -1.8220 c         1 MOL      0.611463
    115 O17         5.2290    3.0410   -2.3940 o         1 MOL     -0.525676
    116 C37         3.8610    2.0260    0.4670 c3        1 MOL      0.304657
    117 C38         3.0810    3.3170    0.6170 c3        1 MOL     -0.343499
    118 O18         3.2850    1.1290    1.3730 oh        1 MOL     -0.600136
    119 H53         2.5800    2.6460   -2.2540 hn        1 MOL      0.175287
    120 H54         3.9710    0.3820   -1.0190 h1        1 MOL      0.121062
    121 H55         4.8620    2.1690    0.8820 h1        1 MOL      0.085682
    122 H56         2.3970    0.9500    1.0530 ho        1 MOL      0.415635
    123 H57         3.5460    4.1480    0.0720 hc        1 MOL      0.089096
    124 H58         2.0600    3.1930    0.2670 hc        1 MOL      0.089096
    125 H59         3.0710    3.5660    1.6730 hc        1 MOL      0.089096
    126 N11         6.2650    1.2540   -1.6630 n         1 MOL     -0.534051
    127 C39         7.6470    1.5550   -2.2630 c3        1 MOL     -0.079147
    128 C40         8.5470    0.3210   -2.1870 c         1 MOL      0.597748
    129 O19         9.1830    0.0740   -3.2060 o         1 MOL     -0.559539
    130 C41         8.2410    2.7290   -1.3890 c3        1 MOL      0.313657
    131 C42         9.4590    3.2900   -2.0430 c3        1 MOL     -0.447780
    132 O20         8.6010    2.2890   -0.0600 oh        1 MOL     -0.594217
    133 H60         6.2590    0.5210   -0.9690 hn        1 MOL      0.275329
    134 H61         7.5550    1.8880   -3.2950 h1        1 MOL      0.136282
    135 H62         7.4410    3.4520   -1.2730 h1        1 MOL      0.050497
    136 H63         7.8120    2.4600    0.4580 ho        1 MOL      0.368542
    137 H64         9.2680    3.8300   -2.9700 hc        1 MOL      0.123696
    138 H65         9.7440    4.0870   -1.3520 hc        1 MOL      0.123696
    139 H66        10.2560    2.5720   -2.2080 hc        1 MOL      0.123696
    140 N12         8.5740   -0.4880   -1.1200 n         1 MOL     -0.392593
    141 C43         9.4810   -1.6310   -0.9460 c3        1 MOL     -0.060131
    142 C44         8.9940   -2.4770    0.2700 c         1 MOL      0.535145
    143 O21         8.2980   -1.9260    1.0990 o         1 MOL     -0.500949
    144 C45        10.8610   -0.9840   -0.6910 c3        1 MOL     -0.100735
    145 C46        12.0480   -1.9450   -0.9260 c3        1 MOL     -0.062423
    146 C47        13.3010   -1.1550   -0.7520 c3        1 MOL     -0.056782
    147 C48        13.6640   -0.9480    0.7190 c3        1 MOL      0.324663
    148 N13        15.0730   -0.5420    1.0230 n4        1 MOL     -0.571112
    149 H67         7.9910   -0.2260   -0.3430 hn        1 MOL      0.245405
    150 H68         9.4670   -2.1290   -1.9190 h1        1 MOL      0.080791
    151 H69        10.8610   -0.6760    0.3520 hc        1 MOL      0.093659
    152 H70        10.8860   -0.1160   -1.3380 hc        1 MOL      0.093659
    153 H71        12.0740   -2.2920   -1.9670 hc        1 MOL      0.026589
    154 H72        12.0290   -2.7820   -0.2230 hc        1 MOL      0.026589
    155 H73        13.2860   -0.1230   -1.1090 hc        1 MOL      0.015733
    156 H74        14.1740   -1.5920   -1.2260 hc        1 MOL      0.015733
    157 H75        13.3390   -1.8720    1.1990 hx        1 MOL     -0.013411
    158 H76        12.9150   -0.2570    1.1040 hx        1 MOL     -0.013411
    159 H77        15.3010    0.3750    0.6650 hn        1 MOL      0.372163
    160 H78        15.1050   -0.5390    2.0320 hn        1 MOL      0.372163
    161 H79        15.7360   -1.1850    0.6240 hn        1 MOL      0.372163
    162 N14         9.2960   -3.7680    0.3300 n         1 MOL     -0.197583
    163 C49         8.9260   -4.6730    1.4370 c3        1 MOL      0.127907
    164 C50         7.4310   -4.7300    1.8250 c         1 MOL      0.389087
    165 O22         7.0400   -4.4500    2.9460 o         1 MOL     -0.496890
    166 C51         9.5570   -6.0600    1.1950 c3        1 MOL     -0.629611
    167 C52        11.1440   -6.1290    1.1420 c3        1 MOL      0.126569
    168 C53        11.8480   -5.1490    2.1250 c         1 MOL      0.566473
    169 O23        12.5720   -4.1780    1.7990 o         1 MOL     -0.645657
    170 O24        11.5450   -5.2920    3.3160 o         1 MOL     -0.645657
    171 H80         9.8060   -4.1120   -0.4770 hn        1 MOL      0.218899
    172 H81         9.4030   -4.3720    2.3640 h1        1 MOL      0.099761
    173 H82         9.1650   -6.5340    0.3030 hc        1 MOL      0.203098
    174 H83         9.2650   -6.5860    2.1080 hc        1 MOL      0.203098
    175 H84        11.3940   -5.7560    0.1490 hc        1 MOL     -0.038449
    176 H85        11.5860   -7.1270    1.1110 hc        1 MOL     -0.038449
    177 N15         6.4860   -4.9890    0.9100 n         1 MOL     -0.388476
    178 C54         6.6330   -5.0490   -0.6000 c3        1 MOL      0.099389
    179 H86         7.2210   -4.1970   -0.9420 h1        1 MOL      0.002952
    180 H87         7.1380   -5.9740   -0.8790 h1        1 MOL      0.002952
    181 H88         5.6470   -5.0190   -1.0630 h1        1 MOL      0.002952
    182 H89         5.5510   -4.9840    1.3010 hn        1 MOL      0.291020
    183 Ca1        -6.2190   -5.4300    0.1340 Ca        1 MOL      1.744508
    184 O25        -5.9800   -4.5270   -2.2740 oh        1 MOL     -0.926870
    185 H90        -6.7330   -4.3970   -2.8520 ho        1 MOL      0.457771
    186 H91        -5.4700   -3.7140   -2.3760 ho        1 MOL      0.457771
    187 O26        -3.4670   -5.2610   -0.1580 oh        1 MOL     -0.926870
    188 H92        -2.6790   -5.5020   -0.6320 ho        1 MOL      0.457771
    189 H93        -3.2180   -4.4910    0.3530 ho        1 MOL      0.457771
@<TRIPOS>BOND
     1    1    2 1   
     2    1    4 1   
     3    1    5 1   
     4    1    6 1   
     5    2    3 2   
     6    2    7 1   
     7    7    8 1   
     8    7   15 1   
     9    8    9 1   
    10    8   11 1   
    11    8   16 1   
    12    9   10 2   
    13    9   19 1   
    14   11   12 1   
    15   11   17 1   
    16   11   18 1   
    17   12   13 1   
    18   12   14 1   
    19   19   20 1   
    20   19   28 1   
    21   20   21 1   
    22   20   23 1   
    23   20   29 1   
    24   21   22 2   
    25   21   41 1   
    26   23   24 1   
    27   23   30 1   
    28   23   31 1   
    29   24   25 1   
    30   24   32 1   
    31   24   33 1   
    32   25   26 1   
    33   25   34 1   
    34   25   35 1   
    35   26   27 1   
    36   26   36 1   
    37   26   37 1   
    38   27   38 1   
    39   27   39 1   
    40   27   40 1   
    41   41   42 1   
    42   41   49 1   
    43   42   43 1   
    44   42   45 1   
    45   42   50 1   
    46   43   44 2   
    47   43   53 1   
    48   45   46 1   
    49   45   51 1   
    50   45   52 1   
    51   46   47 1   
    52   46   48 1   
    53   53   54 1   
    54   53   57 1   
    55   54   55 1   
    56   54   58 1   
    57   54   59 1   
    58   55   56 2   
    59   55   60 1   
    60   60   61 1   
    61   60   68 1   
    62   61   62 1   
    63   61   64 1   
    64   61   69 1   
    65   62   63 2   
    66   62   72 1   
    67   64   65 1   
    68   64   70 1   
    69   64   71 1   
    70   65   66 1   
    71   65   67 1   
    72   72   73 1   
    73   72   76 1   
    74   73   74 1   
    75   73   77 1   
    76   73   78 1   
    77   74   75 2   
    78   74   79 1   
    79   79   80 1   
    80   79   86 1   
    81   80   81 1   
    82   80   83 1   
    83   80   87 1   
    84   81   82 2   
    85   81   93 1   
    86   83   84 1   
    87   83   85 1   
    88   83   88 1   
    89   84   90 1   
    90   84   91 1   
    91   84   92 1   
    92   85   89 1   
    93   93   94 1   
    94   93  101 1   
    95   94   95 1   
    96   94   97 1   
    97   94  102 1   
    98   95   96 2   
    99   95  112 1   
   100   97   98 1   
   101   97   99 1   
   102   97  103 1   
   103   98  100 1   
   104   98  104 1   
   105   98  105 1   
   106   99  106 1   
   107   99  107 1   
   108   99  108 1   
   109  100  109 1   
   110  100  110 1   
   111  100  111 1   
   112  112  113 1   
   113  112  119 1   
   114  113  114 1   
   115  113  116 1   
   116  113  120 1   
   117  114  115 2   
   118  114  126 1   
   119  116  117 1   
   120  116  118 1   
   121  116  121 1   
   122  117  123 1   
   123  117  124 1   
   124  117  125 1   
   125  118  122 1   
   126  126  127 1   
   127  126  133 1   
   128  127  128 1   
   129  127  130 1   
   130  127  134 1   
   131  128  129 2   
   132  128  140 1   
   133  130  131 1   
   134  130  132 1   
   135  130  135 1   
   136  131  137 1   
   137  131  138 1   
   138  131  139 1   
   139  132  136 1   
   140  140  141 1   
   141  140  149 1   
   142  141  142 1   
   143  141  144 1   
   144  141  150 1   
   145  142  143 2   
   146  142  162 1   
   147  144  145 1   
   148  144  151 1   
   149  144  152 1   
   150  145  146 1   
   151  145  153 1   
   152  145  154 1   
   153  146  147 1   
   154  146  155 1   
   155  146  156 1   
   156  147  148 1   
   157  147  157 1   
   158  147  158 1   
   159  148  159 1   
   160  148  160 1   
   161  148  161 1   
   162  162  163 1   
   163  162  171 1   
   164  163  164 1   
   165  163  166 1   
   166  163  172 1   
   167  164  165 2   
   168  164  177 1   
   169  166  167 1   
   170  166  173 1   
   171  166  174 1   
   172  167  168 1   
   173  167  175 1   
   174  167  176 1   
   175  168  169 1   
   176  168  170 1   
   177  177  178 1   
   178  177  182 1   
   179  178  179 1   
   180  178  180 1   
   181  178  181 1   
   182  184  185 1   
   183  184  186 1   
   184  187  188 1   
   185  187  189 1   
@<TRIPOS>SUBSTRUCTURE
     1 MOL         1 TEMP              0 ****  ****    0 ROOT
