@<TRIPOS>MOLECULE
MOL
  181   177     1     0     0
SMALL
resp


@<TRIPOS>ATOM
      1 C1         11.7130   -6.6940    1.3960 c3        1 MOL     -0.261947
      2 C2         10.4740   -5.9820    0.7370 c         1 MOL      0.692129
      3 O1          9.5000   -6.7080    0.5740 o         1 MOL     -0.578573
      4 H1         11.6960   -6.5300    2.4730 hc        1 MOL      0.061704
      5 H2         11.6690   -7.7640    1.1910 hc        1 MOL      0.061704
      6 H3         12.6330   -6.2820    0.9810 hc        1 MOL      0.061704
      7 N1         10.3590   -4.6780    0.3690 n         1 MOL     -0.728106
      8 C3         11.1870   -3.5440    0.7770 c3        1 MOL      0.342347
      9 C4         11.3160   -2.6190   -0.3860 c         1 MOL      0.281221
     10 O2         11.5700   -1.4470   -0.1520 o         1 MOL     -0.489320
     11 C5         10.6720   -2.9180    2.0030 c3        1 MOL     -0.459400
     12 C6          9.2660   -2.2780    1.8310 c         1 MOL      0.930726
     13 O3          8.6460   -2.1660    0.7600 o         1 MOL     -0.811540
     14 O4          8.7970   -1.6900    2.8590 o         1 MOL     -0.811540
     15 H4          9.4590   -4.4600   -0.0430 hn        1 MOL      0.416383
     16 H5         12.1900   -3.8170    1.1310 h1        1 MOL      0.046808
     17 H6         11.3830   -2.2440    2.4870 hc        1 MOL      0.115156
     18 H7         10.6220   -3.7450    2.7120 hc        1 MOL      0.115156
     19 N2         10.9780   -3.0370   -1.6450 n         1 MOL     -0.376006
     20 C7         11.0300   -2.0450   -2.7620 c3        1 MOL      0.173097
     21 C8          9.9060   -0.9460   -3.0540 c         1 MOL      0.471837
     22 O5         10.2260   -0.0120   -3.7360 o         1 MOL     -0.567100
     23 C9         11.3090   -2.8280   -4.0230 c3        1 MOL     -0.266422
     24 H8         10.8620   -4.0200   -1.8450 hn        1 MOL      0.251018
     25 H9         11.9230   -1.4450   -2.5630 h1        1 MOL      0.059246
     26 H10        10.3820   -3.3670   -4.2420 hc        1 MOL      0.065105
     27 H11        11.6600   -2.1850   -4.8380 hc        1 MOL      0.065105
     28 H12        12.1120   -3.5430   -3.8510 hc        1 MOL      0.065105
     29 N3          8.6880   -1.1040   -2.5570 n         1 MOL     -0.246960
     30 C10         7.5950   -0.0760   -2.7440 c3        1 MOL      0.005211
     31 C11         7.4560    0.9680   -1.6540 c         1 MOL      0.542130
     32 O6          7.9290    0.7200   -0.5590 o         1 MOL     -0.515017
     33 C12         6.1590   -0.7600   -2.9200 c3        1 MOL     -0.432732
     34 C13         6.0090   -1.9580   -1.9530 c         1 MOL      0.612487
     35 O7          6.2960   -1.8810   -0.7690 o         1 MOL     -0.633181
     36 O8          5.7310   -3.1000   -2.4210 o         1 MOL     -0.633181
     37 H13         8.4950   -1.9000   -1.9610 hn        1 MOL      0.304303
     38 H14         7.7700    0.5430   -3.6260 h1        1 MOL      0.069789
     39 H15         6.0570   -1.0050   -3.9710 hc        1 MOL      0.123726
     40 H16         5.3780    0.0030   -2.9040 hc        1 MOL      0.123726
     41 N4          6.6940    2.0360   -1.8780 n         1 MOL     -0.432368
     42 C14         6.4920    3.2220   -0.9750 c3        1 MOL     -0.055126
     43 C15         5.6570    2.9460    0.3400 c         1 MOL      0.811364
     44 O9          5.5010    1.7950    0.6960 o         1 MOL     -0.657093
     45 H17         6.3890    2.2180   -2.8260 hn        1 MOL      0.300232
     46 H18         6.0560    4.0720   -1.5110 h1        1 MOL      0.062300
     47 H19         7.4840    3.5260   -0.6620 h1        1 MOL      0.062300
     48 N5          5.0600    3.9460    0.9910 n         1 MOL     -0.823220
     49 C16         3.9710    3.6830    1.9680 c3        1 MOL      0.253049
     50 C17         2.6360    4.1420    1.4200 c         1 MOL      0.747704
     51 O10         1.6710    3.4500    1.7380 o         1 MOL     -0.506480
     52 C18         4.2100    4.4730    3.2720 c3        1 MOL     -0.299290
     53 C19         5.4270    4.0520    4.0600 c         1 MOL      0.758858
     54 N6          6.5270    4.7500    3.9760 n         1 MOL     -0.793217
     55 O11         5.3950    3.0250    4.7560 o         1 MOL     -0.609890
     56 H20         5.0690    4.8810    0.5940 hn        1 MOL      0.320738
     57 H21         3.8650    2.6510    2.2890 h1        1 MOL      0.063868
     58 H22         3.3210    4.3260    3.8800 hc        1 MOL      0.077423
     59 H23         4.3130    5.5520    3.1220 hc        1 MOL      0.077423
     60 H24         6.4950    5.5540    3.3670 hn        1 MOL      0.369277
     61 H25         7.3510    4.4820    4.5000 hn        1 MOL      0.369277
     62 N7          2.5470    5.2850    0.7800 n         1 MOL     -0.705965
     63 C20         1.2510    5.6710    0.3020 c3        1 MOL     -0.034724
     64 C21         0.8420    4.8200   -0.8940 c         1 MOL      0.586628
     65 O12         1.6530    4.0900   -1.5470 o         1 MOL     -0.561140
     66 H26         3.3450    5.7270    0.3510 hn        1 MOL      0.377856
     67 H27         1.3230    6.7140   -0.0270 h1        1 MOL      0.110410
     68 H28         0.5460    5.5990    1.1220 h1        1 MOL      0.110410
     69 N8         -0.3990    4.9290   -1.3240 n         1 MOL     -0.441465
     70 C22        -1.5610    5.7000   -0.8040 c3        1 MOL     -0.051903
     71 C23        -2.8000    4.8350   -0.6170 c         1 MOL      0.732059
     72 O13        -3.5010    5.0090    0.3710 o         1 MOL     -0.585355
     73 C24        -1.8710    6.8830   -1.7340 c3        1 MOL      0.298219
     74 C25        -0.9310    8.0910   -1.9930 c3        1 MOL     -0.310800
     75 O14        -2.1670    6.3850   -3.0230 oh        1 MOL     -0.609075
     76 H29        -0.5590    4.3500   -2.1340 hn        1 MOL      0.310243
     77 H30        -1.4230    6.2100    0.1470 h1        1 MOL      0.050860
     78 H31        -2.8220    7.2360   -1.3560 h1        1 MOL      0.002150
     79 H32        -2.4950    7.1470   -3.5120 ho        1 MOL      0.395846
     80 H33         0.1290    7.8290   -2.0220 hc        1 MOL      0.072075
     81 H34        -1.2500    8.6700   -2.8520 hc        1 MOL      0.072075
     82 H35        -1.0770    8.8250   -1.1980 hc        1 MOL      0.072075
     83 N9         -3.0180    3.8180   -1.4890 n         1 MOL     -0.614153
     84 C26        -4.1540    2.9550   -1.4100 c3        1 MOL      0.335560
     85 C27        -3.7530    1.5700   -0.8630 c         1 MOL      0.468171
     86 O15        -2.6590    1.1600   -1.2740 o         1 MOL     -0.562138
     87 C28        -4.9800    2.7490   -2.7090 c3        1 MOL     -0.224070
     88 C29        -5.3970    4.2120   -3.3800 c3        1 MOL      0.102465
     89 C30        -6.2350    1.9080   -2.5630 c3        1 MOL     -0.088929
     90 C31        -6.3470    5.0680   -2.5580 c3        1 MOL     -0.379653
     91 H36        -2.4290    3.6490   -2.2910 hn        1 MOL      0.331176
     92 H37        -4.8550    3.2830   -0.6420 h1        1 MOL      0.077217
     93 H38        -4.3250    2.2140   -3.3900 hc        1 MOL      0.088579
     94 H39        -5.7980    4.1370   -4.3870 hc        1 MOL     -0.006560
     95 H40        -4.4980    4.7970   -3.5730 hc        1 MOL     -0.006560
     96 H41        -6.9810    2.2060   -1.8150 hc        1 MOL      0.048129
     97 H42        -6.7780    1.9690   -3.5070 hc        1 MOL      0.048129
     98 H43        -5.8730    0.8960   -2.3520 hc        1 MOL      0.048129
     99 H44        -6.5150    6.0240   -3.0430 hc        1 MOL      0.084475
    100 H45        -7.3550    4.6390   -2.6250 hc        1 MOL      0.084475
    101 H46        -6.0160    5.0820   -1.5260 hc        1 MOL      0.084475
    102 N10        -4.4380    0.7970   -0.0120 n         1 MOL     -0.248041
    103 C32        -5.5380    1.2520    0.8340 c3        1 MOL     -0.222282
    104 C33        -6.5330    0.0610    0.9520 c         1 MOL      0.616178
    105 O16        -6.3070   -1.0700    0.6530 o         1 MOL     -0.421241
    106 C34        -5.0880    1.7510    2.1740 c3        1 MOL     -0.193598
    107 C35        -4.0690    0.8530    2.9090 c         1 MOL      0.788250
    108 O17        -4.5020   -0.1550    3.4750 o         1 MOL     -0.737929
    109 O18        -2.9360    1.2180    3.0200 o         1 MOL     -0.737929
    110 H47        -4.1640   -0.1560    0.2050 hn        1 MOL      0.301252
    111 H48        -6.1730    1.9660    0.3230 h1        1 MOL      0.081383
    112 H49        -5.9140    1.9290    2.8630 hc        1 MOL      0.027771
    113 H50        -4.6500    2.7410    2.1270 hc        1 MOL      0.027771
    114 N11        -7.7410    0.3740    1.5410 n         1 MOL     -0.634183
    115 C36        -8.9920   -0.4470    1.4380 c3        1 MOL      0.156316
    116 C37        -9.4430   -0.6190   -0.1010 c         1 MOL      0.415314
    117 O19        -9.5010    0.4040   -0.7830 o         1 MOL     -0.549129
    118 C38       -10.0200    0.2040    2.3440 c3        1 MOL     -0.118113
    119 C39       -11.3400   -0.5570    2.4800 ca        1 MOL      0.005331
    120 C40       -12.2660   -0.6510    1.4040 ca        1 MOL     -0.056419
    121 C41       -11.6350   -1.2260    3.6340 ca        1 MOL     -0.056419
    122 C42       -13.4930   -1.3620    1.4470 ca        1 MOL     -0.226782
    123 C43       -12.8940   -1.9000    3.7590 ca        1 MOL     -0.226782
    124 C44       -13.7660   -2.0450    2.6350 ca        1 MOL     -0.017064
    125 H51        -7.8920    1.3070    1.8800 hn        1 MOL      0.335722
    126 H52        -8.6980   -1.4700    1.6610 h1        1 MOL      0.072220
    127 H53       -10.1170    1.2590    2.0880 hc        1 MOL      0.061612
    128 H54        -9.6110    0.4250    3.3250 hc        1 MOL      0.061612
    129 H55       -12.0520   -0.1690    0.4620 ha        1 MOL      0.097694
    130 H56       -10.9230   -1.1930    4.4430 ha        1 MOL      0.097694
    131 H57       -14.2290   -1.2780    0.6690 ha        1 MOL      0.126119
    132 H58       -13.0860   -2.6010    4.5590 ha        1 MOL      0.126119
    133 H59       -14.6940   -2.5910    2.7490 ha        1 MOL      0.075449
    134 N12        -9.7790   -1.8460   -0.5820 n         1 MOL     -0.035775
    135 C45        -9.8050   -3.0820    0.1660 c3        1 MOL      0.013649
    136 C46        -8.4640   -3.8620    0.2500 c         1 MOL      0.414474
    137 O20        -8.0510   -4.2720    1.3340 o         1 MOL     -0.547023
    138 C47       -10.7500   -3.9700   -0.6000 c3        1 MOL     -0.010835
    139 C48       -11.5390   -2.9460   -1.5340 c3        1 MOL     -0.020273
    140 C49       -10.4370   -1.9500   -1.9170 c3        1 MOL     -0.121357
    141 H60       -10.1600   -2.9790    1.1870 h1        1 MOL      0.042864
    142 H61       -10.1830   -4.7090   -1.1610 hc        1 MOL      0.008561
    143 H62       -11.4820   -4.5250    0.0020 hc        1 MOL      0.008561
    144 H63       -11.9260   -3.4970   -2.3890 hc        1 MOL      0.018362
    145 H64       -12.4090   -2.4920   -1.0650 hc        1 MOL      0.018362
    146 H65        -9.7550   -2.2680   -2.7070 h1        1 MOL      0.080763
    147 H66       -10.8720   -1.0190   -2.2870 h1        1 MOL      0.080763
    148 N13        -7.6940   -3.8350   -0.8510 n         1 MOL     -0.246426
    149 C50        -6.2640   -4.2750   -0.9050 c3        1 MOL     -0.030667
    150 C51        -6.2210   -5.7710   -0.8020 c         1 MOL      0.403231
    151 O21        -6.4860   -6.5570   -1.6800 o         1 MOL     -0.576833
    152 C52        -5.6320   -3.7850   -2.2560 c3        1 MOL      0.097614
    153 C53        -5.3390   -2.3350   -2.3110 c3        1 MOL     -0.073694
    154 C54        -4.8830   -2.0240   -3.7810 c         1 MOL      0.735858
    155 O22        -5.7170   -1.9940   -4.6900 o         1 MOL     -0.741197
    156 O23        -3.6550   -1.9330   -3.9640 o         1 MOL     -0.741197
    157 H67        -8.0280   -3.4270   -1.7160 hn        1 MOL      0.242229
    158 H68        -5.7100   -3.7860   -0.1100 h1        1 MOL      0.151862
    159 H69        -6.2910   -4.0180   -3.0980 hc        1 MOL     -0.009748
    160 H70        -4.6980   -4.2870   -2.5030 hc        1 MOL     -0.009748
    161 H71        -4.6900   -2.0060   -1.5000 hc        1 MOL     -0.064864
    162 H72        -6.2480   -1.7770   -2.1310 hc        1 MOL     -0.064864
    163 N14        -5.9270   -6.3080    0.3620 n         1 MOL     -0.252543
    164 C55        -5.4110   -5.7210    1.6090 c3        1 MOL     -0.135031
    165 H73        -6.1780   -5.7800    2.3820 h1        1 MOL      0.070832
    166 H74        -4.5280   -6.2710    1.9320 h1        1 MOL      0.070832
    167 H75        -5.1480   -4.6770    1.4380 h1        1 MOL      0.070832
    168 H76        -5.9440   -7.3240    0.4020 hn        1 MOL      0.235126
    169 Ca1         6.6190   -0.4580    1.4410 Ca        1 MOL      1.729664
    170 O24         7.8820    1.5400    2.5200 oh        1 MOL     -0.827495
    171 H77         8.3450    2.3790    2.4690 ho        1 MOL      0.414662
    172 H78         7.6530    1.4440    3.4430 ho        1 MOL      0.414662
    173 O25         5.9350   -2.7680    2.3450 oh        1 MOL     -0.827495
    174 H79         5.5540   -2.8650    3.2170 ho        1 MOL      0.414662
    175 H80         5.4030   -3.3510    1.7930 ho        1 MOL      0.414662
    176 O26         5.7410    0.4830    3.8060 oh        1 MOL     -0.827495
    177 H81         5.3800    0.1750    4.6370 ho        1 MOL      0.414662
    178 H82         5.6870    1.4420    3.8570 ho        1 MOL      0.414662
    179 O27         3.8960   -0.7280    1.4980 oh        1 MOL     -0.827495
    180 H83         3.4760   -1.5890    1.4450 ho        1 MOL      0.414662
    181 H84         3.2060   -0.1070    1.2500 ho        1 MOL      0.414662
@<TRIPOS>BOND
     1    1    2 1   
     2    1    4 1   
     3    1    5 1   
     4    1    6 1   
     5    2    3 2   
     6    2    7 1   
     7    7    8 1   
     8    7   15 1   
     9    8    9 1   
    10    8   11 1   
    11    8   16 1   
    12    9   10 2   
    13    9   19 1   
    14   11   12 1   
    15   11   17 1   
    16   11   18 1   
    17   12   13 1   
    18   12   14 1   
    19   19   20 1   
    20   19   24 1   
    21   20   21 1   
    22   20   23 1   
    23   20   25 1   
    24   21   22 2   
    25   21   29 1   
    26   23   26 1   
    27   23   27 1   
    28   23   28 1   
    29   29   30 1   
    30   29   37 1   
    31   30   31 1   
    32   30   33 1   
    33   30   38 1   
    34   31   32 2   
    35   31   41 1   
    36   33   34 1   
    37   33   39 1   
    38   33   40 1   
    39   34   35 1   
    40   34   36 1   
    41   41   42 1   
    42   41   45 1   
    43   42   43 1   
    44   42   46 1   
    45   42   47 1   
    46   43   44 2   
    47   43   48 1   
    48   48   49 1   
    49   48   56 1   
    50   49   50 1   
    51   49   52 1   
    52   49   57 1   
    53   50   51 2   
    54   50   62 1   
    55   52   53 1   
    56   52   58 1   
    57   52   59 1   
    58   53   54 1   
    59   53   55 2   
    60   54   60 1   
    61   54   61 1   
    62   62   63 1   
    63   62   66 1   
    64   63   64 1   
    65   63   67 1   
    66   63   68 1   
    67   64   65 2   
    68   64   69 1   
    69   69   70 1   
    70   69   76 1   
    71   70   71 1   
    72   70   73 1   
    73   70   77 1   
    74   71   72 2   
    75   71   83 1   
    76   73   74 1   
    77   73   75 1   
    78   73   78 1   
    79   74   80 1   
    80   74   81 1   
    81   74   82 1   
    82   75   79 1   
    83   83   84 1   
    84   83   91 1   
    85   84   85 1   
    86   84   87 1   
    87   84   92 1   
    88   85   86 2   
    89   85  102 1   
    90   87   88 1   
    91   87   89 1   
    92   87   93 1   
    93   88   90 1   
    94   88   94 1   
    95   88   95 1   
    96   89   96 1   
    97   89   97 1   
    98   89   98 1   
    99   90   99 1   
   100   90  100 1   
   101   90  101 1   
   102  102  103 1   
   103  102  110 1   
   104  103  104 1   
   105  103  106 1   
   106  103  111 1   
   107  104  105 2   
   108  104  114 1   
   109  106  107 1   
   110  106  112 1   
   111  106  113 1   
   112  107  108 1   
   113  107  109 1   
   114  114  115 1   
   115  114  125 1   
   116  115  116 1   
   117  115  118 1   
   118  115  126 1   
   119  116  117 2   
   120  116  134 1   
   121  118  119 1   
   122  118  127 1   
   123  118  128 1   
   124  119  120 ar  
   125  119  121 ar  
   126  120  122 ar  
   127  120  129 1   
   128  121  123 ar  
   129  121  130 1   
   130  122  124 ar  
   131  122  131 1   
   132  123  124 ar  
   133  123  132 1   
   134  124  133 1   
   135  134  135 1   
   136  134  140 1   
   137  135  136 1   
   138  135  138 1   
   139  135  141 1   
   140  136  137 2   
   141  136  148 1   
   142  138  139 1   
   143  138  142 1   
   144  138  143 1   
   145  139  140 1   
   146  139  144 1   
   147  139  145 1   
   148  140  146 1   
   149  140  147 1   
   150  148  149 1   
   151  148  157 1   
   152  149  150 1   
   153  149  152 1   
   154  149  158 1   
   155  150  151 2   
   156  150  163 1   
   157  152  153 1   
   158  152  159 1   
   159  152  160 1   
   160  153  154 1   
   161  153  161 1   
   162  153  162 1   
   163  154  155 1   
   164  154  156 1   
   165  163  164 1   
   166  163  168 1   
   167  164  165 1   
   168  164  166 1   
   169  164  167 1   
   170  170  171 1   
   171  170  172 1   
   172  173  174 1   
   173  173  175 1   
   174  176  177 1   
   175  176  178 1   
   176  179  180 1   
   177  179  181 1   
@<TRIPOS>SUBSTRUCTURE
     1 MOL         1 TEMP              0 ****  ****    0 ROOT
