@<TRIPOS>MOLECULE
MOL
  188   182     1     0     0
SMALL
resp


@<TRIPOS>ATOM
      1 C1          4.5460   -0.9910    6.1090 c3        1 MOL     -0.441489
      2 C2          3.5400   -0.7820    4.9780 c         1 MOL      0.668930
      3 O1          2.3520   -0.6450    5.1710 o         1 MOL     -0.578469
      4 H1          4.7840   -0.0300    6.5650 hc        1 MOL      0.118412
      5 H2          4.1170   -1.6530    6.8610 hc        1 MOL      0.118412
      6 H3          5.4560   -1.4370    5.7090 hc        1 MOL      0.118412
      7 N1          4.0900   -0.8170    3.7160 n         1 MOL     -0.565327
      8 C3          3.4440   -0.6640    2.3700 c3        1 MOL      0.337592
      9 C4          2.9790   -1.9310    1.6670 c         1 MOL      0.202137
     10 O2          2.1160   -1.9030    0.7660 o         1 MOL     -0.516307
     11 C5          4.3720    0.0390    1.3920 c3        1 MOL     -0.338041
     12 C6          5.8510   -0.4860    1.3080 c         1 MOL      0.579989
     13 O3          6.0570   -1.6600    0.9590 o         1 MOL     -0.624173
     14 O4          6.8140    0.2950    1.5670 o         1 MOL     -0.624173
     15 H4          5.0990   -0.8540    3.6640 hn        1 MOL      0.330741
     16 H5          2.5750   -0.0220    2.4170 h1        1 MOL      0.047322
     17 H6          4.3750    1.0810    1.7260 hc        1 MOL      0.073969
     18 H7          3.9560    0.0140    0.3790 hc        1 MOL      0.073969
     19 N2          3.6240   -3.0890    1.9650 n         1 MOL     -0.166190
     20 C7          3.3320   -4.4820    1.4970 c3        1 MOL     -0.037876
     21 C8          3.8820   -4.9110    0.1750 c         1 MOL      0.577433
     22 O5          4.3880   -5.9790    0.0720 o         1 MOL     -0.551888
     23 C9          3.6570   -5.3810    2.6550 c3        1 MOL     -0.128617
     24 C10         2.8430   -4.9810    3.9470 c3        1 MOL     -0.044955
     25 C11         3.0370   -6.0170    5.0320 c3        1 MOL     -0.158472
     26 C12         2.1990   -7.3420    4.7230 c3        1 MOL      0.085810
     27 N3          2.6140   -8.4480    5.6190 n4        1 MOL     -0.261903
     28 H8          4.5220   -2.8650    2.3570 hn        1 MOL      0.214952
     29 H9          2.2500   -4.5460    1.4120 h1        1 MOL      0.094412
     30 H10         4.7110   -5.4180    2.9030 hc        1 MOL      0.067248
     31 H11         3.3970   -6.3920    2.3190 hc        1 MOL      0.067248
     32 H12         1.7910   -4.8000    3.7410 hc        1 MOL      0.046128
     33 H13         3.3590   -4.0400    4.1450 hc        1 MOL      0.046128
     34 H14         2.5290   -5.6640    5.9250 hc        1 MOL      0.069787
     35 H15         4.0960   -6.2280    5.1310 hc        1 MOL      0.069787
     36 H16         2.3690   -7.6170    3.6840 hx        1 MOL      0.068627
     37 H17         1.1290   -7.1850    4.8420 hx        1 MOL      0.068627
     38 H18         2.7410   -8.1630    6.5800 hn        1 MOL      0.300458
     39 H19         1.8530   -9.1050    5.6310 hn        1 MOL      0.300458
     40 H20         3.3650   -9.0620    5.3410 hn        1 MOL      0.300458
     41 N4          3.7770   -3.9960   -0.7790 n         1 MOL     -0.437228
     42 C13         4.2650   -4.0620   -2.1960 c3        1 MOL      0.199045
     43 C14         4.5030   -2.6900   -2.8710 c         1 MOL      0.473799
     44 O6          4.0240   -2.3930   -3.9830 o         1 MOL     -0.532135
     45 C15         3.3260   -5.0050   -2.9220 c3        1 MOL     -0.481068
     46 C16         1.8060   -4.5920   -2.9260 c         1 MOL      0.733135
     47 O7          1.4350   -3.4350   -2.4830 o         1 MOL     -0.645917
     48 O8          0.9990   -5.4120   -3.3610 o         1 MOL     -0.645917
     49 H21         3.0890   -3.2830   -0.6150 hn        1 MOL      0.289686
     50 H22         5.2390   -4.5470   -2.2560 h1        1 MOL      0.076810
     51 H23         3.5160   -5.9650   -2.4450 hc        1 MOL      0.125590
     52 H24         3.6570   -5.2020   -3.9330 hc        1 MOL      0.125590
     53 N5          5.0320   -1.7780   -2.0520 n         1 MOL     -0.502018
     54 C17         5.2770   -0.4250   -2.4230 c3        1 MOL      0.356388
     55 C18         6.5430   -0.3200   -3.2680 c         1 MOL      0.555871
     56 O9          7.2520   -1.2640   -3.5870 o         1 MOL     -0.520138
     57 H25         5.3230   -2.0790   -1.1320 hn        1 MOL      0.239518
     58 H26         5.4540    0.1710   -1.5370 h1        1 MOL     -0.026389
     59 H27         4.4780    0.0250   -3.0130 h1        1 MOL     -0.026389
     60 N6          6.8160    0.8340   -3.9140 n         1 MOL     -0.546381
     61 C19         6.3250    2.1320   -3.5840 c3        1 MOL      0.154239
     62 C20         6.5980    2.4570   -2.0950 c         1 MOL      0.320448
     63 O10         7.7470    2.3460   -1.5910 o         1 MOL     -0.447496
     64 C21         6.8920    3.1360   -4.5740 c3        1 MOL     -0.442360
     65 C22         6.5190    4.5440   -4.1590 c         1 MOL      0.707943
     66 N7          5.2630    4.8560   -4.3630 n         1 MOL     -0.773580
     67 O11         7.2630    5.3600   -3.6180 o         1 MOL     -0.529803
     68 H28         7.6510    0.7850   -4.4980 hn        1 MOL      0.341289
     69 H29         5.2380    2.0810   -3.7090 h1        1 MOL      0.028195
     70 H30         6.6230    2.9350   -5.6130 hc        1 MOL      0.144844
     71 H31         7.9770    3.0670   -4.6430 hc        1 MOL      0.144844
     72 H32         4.7290    4.1130   -4.7990 hn        1 MOL      0.358019
     73 H33         4.8930    5.6030   -3.7830 hn        1 MOL      0.358019
     74 N8          5.6240    2.7250   -1.1930 n         1 MOL     -0.200731
     75 C23         4.2460    2.9600   -1.5320 c3        1 MOL      0.044523
     76 C24         3.4290    3.4890   -0.3400 c         1 MOL      0.617664
     77 O12         3.9810    3.8600    0.6640 o         1 MOL     -0.504268
     78 H34         5.9390    2.9470   -0.2600 hn        1 MOL      0.244208
     79 H35         3.8050    1.9890   -1.7680 h1        1 MOL     -0.032197
     80 H36         4.1150    3.6810   -2.3380 h1        1 MOL     -0.032197
     81 N9          2.0390    3.5030   -0.4180 n         1 MOL     -0.562047
     82 C25         1.1460    4.2040    0.5470 c3        1 MOL      0.099759
     83 C26        -0.1820    3.5440    0.5040 c         1 MOL      0.626934
     84 O13        -0.6630    3.0280   -0.5090 o         1 MOL     -0.520886
     85 C27         1.1720    5.7660    0.1730 c3        1 MOL     -0.261999
     86 C28         0.7120    6.6300    1.3430 ca        1 MOL      0.065205
     87 C29        -0.5010    7.3110    1.2750 ca        1 MOL     -0.104919
     88 C30         1.6120    6.8390    2.3750 ca        1 MOL     -0.104919
     89 C31        -0.8570    8.1900    2.3450 ca        1 MOL     -0.321624
     90 C32         1.2590    7.6640    3.4800 ca        1 MOL     -0.321624
     91 C33         0.0250    8.3710    3.4250 ca        1 MOL      0.385594
     92 O14        -0.3590    9.1850    4.4980 oh        1 MOL     -0.520298
     93 H37         1.7220    3.1770   -1.3210 hn        1 MOL      0.267129
     94 H38         1.6230    4.0360    1.5130 h1        1 MOL      0.072626
     95 H39         0.5130    6.0040   -0.6670 hc        1 MOL      0.124882
     96 H40         2.1500    6.1180   -0.1600 hc        1 MOL      0.124882
     97 H41        -1.1700    7.2090    0.4430 ha        1 MOL      0.134665
     98 H42         2.5220    6.2570    2.3300 ha        1 MOL      0.134665
     99 H43        -1.7960    8.7280    2.3310 ha        1 MOL      0.166011
    100 H44         1.8140    7.7970    4.3900 ha        1 MOL      0.166011
    101 H45         0.2030    9.0380    5.2520 ho        1 MOL      0.372397
    102 N10        -0.9440    3.6740    1.6330 n         1 MOL     -0.562925
    103 C34        -2.3720    3.1750    1.7160 c3        1 MOL     -0.187999
    104 C35        -3.3070    3.6970    0.5560 c         1 MOL      0.751289
    105 O15        -3.1040    4.8150    0.0910 o         1 MOL     -0.534106
    106 C36        -3.0090    3.6280    3.0590 c3        1 MOL      0.241863
    107 C37        -2.7820    2.7340    4.3160 c3        1 MOL     -0.097601
    108 C38        -2.6540    5.0500    3.3350 c3        1 MOL     -0.086782
    109 C39        -3.8190    3.0570    5.4320 c3        1 MOL     -0.105642
    110 H46        -0.6560    4.2610    2.4010 hn        1 MOL      0.307901
    111 H47        -2.3670    2.0910    1.7480 h1        1 MOL      0.090331
    112 H48        -4.0840    3.5970    2.8750 hc        1 MOL     -0.034076
    113 H49        -1.8170    2.9690    4.7680 hc        1 MOL      0.038330
    114 H50        -2.7810    1.6790    4.0450 hc        1 MOL      0.038330
    115 H51        -1.5960    5.1060    3.5860 hc        1 MOL      0.023687
    116 H52        -2.9120    5.6840    2.4840 hc        1 MOL      0.023687
    117 H53        -3.3050    5.3530    4.1520 hc        1 MOL      0.023687
    118 H54        -3.5350    3.8990    6.0520 hc        1 MOL      0.034356
    119 H55        -4.8340    3.2610    5.1020 hc        1 MOL      0.034356
    120 H56        -3.9400    2.1730    6.0510 hc        1 MOL      0.034356
    121 N11        -4.1130    2.7640    0.0250 n         1 MOL     -0.556726
    122 C40        -5.2440    3.0870   -0.8880 c3        1 MOL      0.041355
    123 C41        -5.6640    1.8840   -1.7440 c         1 MOL      0.557903
    124 O16        -5.7390    0.7610   -1.2720 o         1 MOL     -0.384004
    125 C42        -6.3500    3.6860   -0.0640 c3        1 MOL      0.076271
    126 O17        -6.9000    2.7710    0.8660 oh        1 MOL     -0.591164
    127 H57        -4.1930    1.9010    0.5510 hn        1 MOL      0.293104
    128 H58        -5.0060    3.9080   -1.5580 h1        1 MOL      0.056940
    129 H59        -7.0710    3.9090   -0.8560 h1        1 MOL      0.037155
    130 H60        -6.0430    4.6280    0.4060 h1        1 MOL      0.037155
    131 H61        -7.5180    3.3110    1.3600 ho        1 MOL      0.411302
    132 N12        -6.0530    2.1280   -3.0160 n         1 MOL     -0.513310
    133 C43        -6.3320    1.0540   -4.0060 c3        1 MOL      0.044242
    134 C44        -7.3780   -0.0190   -3.5740 c         1 MOL      0.449886
    135 O18        -7.4600   -1.0640   -4.1830 o         1 MOL     -0.430743
    136 C45        -4.9880    0.3570   -4.4090 c3        1 MOL     -0.231650
    137 H62        -6.0090    3.0900   -3.3220 hn        1 MOL      0.314422
    138 H63        -6.7300    1.7060   -4.7790 h1        1 MOL      0.098824
    139 H64        -4.8140   -0.3960   -3.6380 hc        1 MOL      0.084121
    140 H65        -5.1470   -0.0430   -5.4170 hc        1 MOL      0.084121
    141 H66        -4.1930    1.0990   -4.4460 hc        1 MOL      0.084121
    142 N13        -8.1650    0.3270   -2.5000 n         1 MOL     -0.570828
    143 C46        -9.0740   -0.5730   -1.8160 c3        1 MOL      0.565205
    144 C47        -8.5960   -2.0180   -1.4650 c         1 MOL      0.196969
    145 O19        -9.3420   -2.9530   -1.7350 o         1 MOL     -0.465394
    146 C48       -10.4720   -0.4500   -2.4840 c3        1 MOL     -0.375019
    147 H67        -8.0080    1.1430   -1.9380 hn        1 MOL      0.269352
    148 H68        -9.3490   -0.0580   -0.8930 h1        1 MOL     -0.070462
    149 H69       -10.4510   -1.3150   -3.1450 hc        1 MOL      0.089701
    150 H70       -11.2920   -0.5340   -1.7710 hc        1 MOL      0.089701
    151 H71       -10.6060    0.4040   -3.1360 hc        1 MOL      0.089701
    152 N14        -7.3910   -2.1250   -0.8960 n         1 MOL     -0.083749
    153 C49        -6.7820   -3.3530   -0.2830 c3        1 MOL      0.003350
    154 C50        -7.3680   -3.7580    1.1060 c         1 MOL      0.533422
    155 O20        -7.6330   -4.9460    1.3230 o         1 MOL     -0.519177
    156 C51        -5.2410   -3.1140    0.0310 c3        1 MOL     -0.218124
    157 C52        -4.4020   -3.3460   -1.2360 c3        1 MOL      0.001618
    158 C53        -2.9220   -2.9520   -0.9930 c         1 MOL      0.841167
    159 O21        -2.0450   -3.7900   -1.2400 o         1 MOL     -0.794049
    160 O22        -2.6070   -1.7920   -0.6270 o         1 MOL     -0.794049
    161 H72        -7.0410   -1.2230   -0.5960 hn        1 MOL      0.099399
    162 H73        -6.8350   -4.2610   -0.8840 h1        1 MOL      0.116628
    163 H74        -4.7490   -3.8010    0.7350 hc        1 MOL      0.045710
    164 H75        -5.0830   -2.0610    0.2300 hc        1 MOL      0.045710
    165 H76        -4.7260   -2.7450   -2.0850 hc        1 MOL      0.008367
    166 H77        -4.5270   -4.3730   -1.5910 hc        1 MOL      0.008367
    167 N15        -7.5260   -2.7980    2.0660 n         1 MOL     -0.440272
    168 C54        -8.3760   -3.1220    3.1990 c3        1 MOL     -0.110107
    169 H78        -8.3310   -4.1940    3.3910 h1        1 MOL      0.082787
    170 H79        -8.0310   -2.5800    4.0790 h1        1 MOL      0.082787
    171 H80        -9.4040   -2.8370    2.9750 h1        1 MOL      0.082787
    172 H81        -7.4020   -1.8290    1.8020 hn        1 MOL      0.290463
    173 Ca1        -0.0460   -2.2220   -0.5980 Ca        1 MOL      1.761066
    174 O23         0.5550   -5.0550   -0.2030 oh        1 MOL     -0.875442
    175 H82         0.4870   -5.4950   -1.0480 ho        1 MOL      0.417235
    176 H83         0.2820   -5.7200    0.4290 ho        1 MOL      0.417235
    177 O24        -0.6720    0.3110   -0.2970 oh        1 MOL     -0.875442
    178 H84        -1.5870    0.5700   -0.1760 ho        1 MOL      0.417235
    179 H85        -0.1770    1.1240   -0.1640 ho        1 MOL      0.417235
    180 O25         1.9320   -0.8560   -1.8170 oh        1 MOL     -0.875442
    181 H86         1.9590    0.0680   -2.0660 ho        1 MOL      0.417235
    182 H87         2.1410   -1.3350   -2.6160 ho        1 MOL      0.417235
    183 O26        -0.7130   -2.9580    1.7410 oh        1 MOL     -0.875442
    184 H88        -1.3660   -3.6380    1.8890 ho        1 MOL      0.417235
    185 H89        -0.3600   -2.7560    2.5980 ho        1 MOL      0.417235
    186 O27        -0.7850   -1.5360   -3.1960 oh        1 MOL     -0.875442
    187 H90        -0.9090   -0.6020   -3.3860 ho        1 MOL      0.417235
    188 H91        -0.8860   -1.9670   -4.0460 ho        1 MOL      0.417235
@<TRIPOS>BOND
     1    1    2 1   
     2    1    4 1   
     3    1    5 1   
     4    1    6 1   
     5    2    3 2   
     6    2    7 1   
     7    7    8 1   
     8    7   15 1   
     9    8    9 1   
    10    8   11 1   
    11    8   16 1   
    12    9   10 2   
    13    9   19 1   
    14   11   12 1   
    15   11   17 1   
    16   11   18 1   
    17   12   13 1   
    18   12   14 1   
    19   19   20 1   
    20   19   28 1   
    21   20   21 1   
    22   20   23 1   
    23   20   29 1   
    24   21   22 2   
    25   21   41 1   
    26   23   24 1   
    27   23   30 1   
    28   23   31 1   
    29   24   25 1   
    30   24   32 1   
    31   24   33 1   
    32   25   26 1   
    33   25   34 1   
    34   25   35 1   
    35   26   27 1   
    36   26   36 1   
    37   26   37 1   
    38   27   38 1   
    39   27   39 1   
    40   27   40 1   
    41   41   42 1   
    42   41   49 1   
    43   42   43 1   
    44   42   45 1   
    45   42   50 1   
    46   43   44 2   
    47   43   53 1   
    48   45   46 1   
    49   45   51 1   
    50   45   52 1   
    51   46   47 1   
    52   46   48 1   
    53   53   54 1   
    54   53   57 1   
    55   54   55 1   
    56   54   58 1   
    57   54   59 1   
    58   55   56 2   
    59   55   60 1   
    60   60   61 1   
    61   60   68 1   
    62   61   62 1   
    63   61   64 1   
    64   61   69 1   
    65   62   63 2   
    66   62   74 1   
    67   64   65 1   
    68   64   70 1   
    69   64   71 1   
    70   65   66 1   
    71   65   67 2   
    72   66   72 1   
    73   66   73 1   
    74   74   75 1   
    75   74   78 1   
    76   75   76 1   
    77   75   79 1   
    78   75   80 1   
    79   76   77 2   
    80   76   81 1   
    81   81   82 1   
    82   81   93 1   
    83   82   83 1   
    84   82   85 1   
    85   82   94 1   
    86   83   84 2   
    87   83  102 1   
    88   85   86 1   
    89   85   95 1   
    90   85   96 1   
    91   86   87 ar  
    92   86   88 ar  
    93   87   89 ar  
    94   87   97 1   
    95   88   90 ar  
    96   88   98 1   
    97   89   91 ar  
    98   89   99 1   
    99   90   91 ar  
   100   90  100 1   
   101   91   92 1   
   102   92  101 1   
   103  102  103 1   
   104  102  110 1   
   105  103  104 1   
   106  103  106 1   
   107  103  111 1   
   108  104  105 2   
   109  104  121 1   
   110  106  107 1   
   111  106  108 1   
   112  106  112 1   
   113  107  109 1   
   114  107  113 1   
   115  107  114 1   
   116  108  115 1   
   117  108  116 1   
   118  108  117 1   
   119  109  118 1   
   120  109  119 1   
   121  109  120 1   
   122  121  122 1   
   123  121  127 1   
   124  122  123 1   
   125  122  125 1   
   126  122  128 1   
   127  123  124 2   
   128  123  132 1   
   129  125  126 1   
   130  125  129 1   
   131  125  130 1   
   132  126  131 1   
   133  132  133 1   
   134  132  137 1   
   135  133  134 1   
   136  133  136 1   
   137  133  138 1   
   138  134  135 2   
   139  134  142 1   
   140  136  139 1   
   141  136  140 1   
   142  136  141 1   
   143  142  143 1   
   144  142  147 1   
   145  143  144 1   
   146  143  146 1   
   147  143  148 1   
   148  144  145 2   
   149  144  152 1   
   150  146  149 1   
   151  146  150 1   
   152  146  151 1   
   153  152  153 1   
   154  152  161 1   
   155  153  154 1   
   156  153  156 1   
   157  153  162 1   
   158  154  155 2   
   159  154  167 1   
   160  156  157 1   
   161  156  163 1   
   162  156  164 1   
   163  157  158 1   
   164  157  165 1   
   165  157  166 1   
   166  158  159 1   
   167  158  160 1   
   168  167  168 1   
   169  167  172 1   
   170  168  169 1   
   171  168  170 1   
   172  168  171 1   
   173  174  175 1   
   174  174  176 1   
   175  177  178 1   
   176  177  179 1   
   177  180  181 1   
   178  180  182 1   
   179  183  184 1   
   180  183  185 1   
   181  186  187 1   
   182  186  188 1   
@<TRIPOS>SUBSTRUCTURE
     1 MOL         1 TEMP              0 ****  ****    0 ROOT
