@<TRIPOS>MOLECULE
MOL
  192   187     1     0     0
SMALL
resp


@<TRIPOS>ATOM
      1 C1         -7.3220   -3.3370    3.6890 c3        1 MOL     -0.200179
      2 C2         -6.3920   -2.6470    2.6370 c         1 MOL      0.735213
      3 O1         -5.9410   -3.2700    1.6840 o         1 MOL     -0.616718
      4 H1         -6.7130   -3.8970    4.3990 hc        1 MOL      0.044267
      5 H2         -7.8950   -2.5780    4.2220 hc        1 MOL      0.044267
      6 H3         -8.0040   -4.0180    3.1800 hc        1 MOL      0.044267
      7 N1         -6.2150   -1.3840    2.6930 n         1 MOL     -0.360960
      8 C3         -5.5520   -0.4010    1.7750 c3        1 MOL      0.059669
      9 C4         -4.0730   -0.5390    1.5430 c         1 MOL     -0.019222
     10 O2         -3.3750    0.2320    0.7920 o         1 MOL     -0.244335
     11 C5         -5.7710    1.0030    2.3650 c3        1 MOL      0.107066
     12 C6         -7.2140    1.3800    2.4950 c         1 MOL      0.599755
     13 O3         -7.8630    1.0060    3.5190 o         1 MOL     -0.676717
     14 O4         -7.7350    2.1610    1.6430 o         1 MOL     -0.676717
     15 H4         -6.5030   -0.9790    3.5780 hn        1 MOL      0.187070
     16 H5         -6.1330   -0.4630    0.8620 h1        1 MOL      0.127718
     17 H6         -5.2750    1.6880    1.6790 hc        1 MOL     -0.065523
     18 H7         -5.3270    1.1710    3.3480 hc        1 MOL     -0.065523
     19 N2         -3.4810   -1.6660    2.0800 n         1 MOL     -0.131110
     20 C7         -2.0620   -1.6430    2.5100 c3        1 MOL     -0.068396
     21 C8         -1.4010   -2.8400    1.8060 c         1 MOL      0.557610
     22 O5         -1.9520   -3.9450    1.8400 o         1 MOL     -0.495045
     23 C9         -1.8740   -1.6840    4.0770 c3        1 MOL     -0.124402
     24 C10        -2.5500   -0.3820    4.5810 c3        1 MOL      0.023438
     25 C11        -2.1510   -0.1290    6.0960 c3        1 MOL     -0.066744
     26 C12        -2.6630    1.2530    6.6070 c3        1 MOL     -0.129130
     27 N3         -2.0250    1.6770    7.9030 n4        1 MOL     -0.446264
     28 H8         -4.1590   -2.2960    2.4830 hn        1 MOL      0.193619
     29 H9         -1.6050   -0.7050    2.2000 h1        1 MOL      0.104690
     30 H10        -0.8450   -1.6960    4.4620 hc        1 MOL      0.050237
     31 H11        -2.5700   -2.4100    4.5010 hc        1 MOL      0.050237
     32 H12        -3.6290   -0.4970    4.4490 hc        1 MOL      0.056963
     33 H13        -2.1000    0.4220    3.9960 hc        1 MOL      0.056963
     34 H14        -1.0630   -0.2160    6.1730 hc        1 MOL      0.062419
     35 H15        -2.5680   -0.9910    6.6210 hc        1 MOL      0.062419
     36 H16        -3.7560    1.2820    6.7210 hx        1 MOL      0.153951
     37 H17        -2.1930    1.9580    5.9200 hx        1 MOL      0.153951
     38 H18        -2.1570    0.9740    8.6180 hn        1 MOL      0.360040
     39 H19        -1.0510    1.8560    7.7380 hn        1 MOL      0.360040
     40 H20        -2.6010    2.4570    8.2010 hn        1 MOL      0.360040
     41 N4         -0.1300   -2.7480    1.3420 n         1 MOL     -0.418536
     42 C13         0.6880   -1.5210    1.1640 c3        1 MOL     -0.046899
     43 C14         1.0220   -0.7620    2.4870 c         1 MOL      0.719534
     44 O6          0.4620    0.2050    2.8820 o         1 MOL     -0.588322
     45 C15         0.3220   -0.6520    0.0140 c3        1 MOL     -0.239339
     46 C16         0.3510   -1.2580   -1.3630 c         1 MOL      0.601756
     47 O7          0.7710   -2.4160   -1.6460 o         1 MOL     -0.728651
     48 O8         -0.0300   -0.5570   -2.3160 o         1 MOL     -0.728651
     49 H21         0.1930   -3.5280    0.7800 hn        1 MOL      0.197330
     50 H22         1.6000   -1.9850    0.7810 h1        1 MOL      0.041997
     51 H23         1.0590    0.1420    0.0120 hc        1 MOL      0.113854
     52 H24        -0.6480   -0.1840    0.1820 hc        1 MOL      0.113854
     53 N5          2.0320   -1.2850    3.1810 n         1 MOL     -0.568876
     54 C17         3.0160   -2.3030    2.7080 c3        1 MOL      0.099200
     55 C18         4.1100   -2.6400    3.7020 c         1 MOL      0.584098
     56 O9          3.8980   -2.3680    4.8600 o         1 MOL     -0.583855
     57 H25         2.2260   -0.7240    4.0070 hn        1 MOL      0.326146
     58 H26         3.4940   -2.0040    1.7820 h1        1 MOL      0.058832
     59 H27         2.5040   -3.2460    2.4970 h1        1 MOL      0.058832
     60 N6          5.1750   -3.1680    3.2040 n         1 MOL     -0.502814
     61 C19         5.4580   -3.7240    1.8040 c3        1 MOL      0.126259
     62 C20         6.3660   -2.8080    0.9900 c         1 MOL      0.560731
     63 O10         6.6800   -1.7340    1.4460 o         1 MOL     -0.497362
     64 C21         6.0650   -5.1670    1.9200 c3        1 MOL     -0.216109
     65 C22         7.3750   -5.2980    2.6900 c         1 MOL      0.725863
     66 O11         7.5980   -4.5290    3.6390 o         1 MOL     -0.682768
     67 O12         8.2330   -6.1430    2.3610 o         1 MOL     -0.682768
     68 H28         5.9030   -3.4550    3.8460 hn        1 MOL      0.325670
     69 H29         4.6080   -3.9790    1.1670 h1        1 MOL     -0.028843
     70 H30         6.2590   -5.5720    0.9250 hc        1 MOL      0.018126
     71 H31         5.3220   -5.7740    2.4450 hc        1 MOL      0.018126
     72 N7          6.8370   -3.1420   -0.1600 n         1 MOL     -0.307738
     73 C23         7.6530   -2.4790   -1.0700 c3        1 MOL     -0.348802
     74 C24         7.1220   -1.2410   -1.7120 c         1 MOL      0.525140
     75 O13         7.9940   -0.6320   -2.4000 o         1 MOL     -0.558861
     76 H32         6.6740   -4.1100   -0.4170 hn        1 MOL      0.250161
     77 H33         7.9660   -3.1150   -1.8990 h1        1 MOL      0.184139
     78 H34         8.5540   -2.0870   -0.5810 h1        1 MOL      0.184139
     79 N8          5.8420   -0.8600   -1.4840 n         1 MOL     -0.368333
     80 C25         5.2930    0.5390   -1.8110 c3        1 MOL     -0.052852
     81 C26         5.2850    1.4760   -0.5710 c         1 MOL      0.531735
     82 O14         4.7060    1.1850    0.4980 o         1 MOL     -0.545619
     83 C27         3.8630    0.4320   -2.3210 c3        1 MOL      0.618412
     84 C28         3.6370   -0.3210   -3.5970 c3        1 MOL     -0.343704
     85 O15         3.2690    1.6990   -2.3820 oh        1 MOL     -0.646508
     86 H35         5.2350   -1.5160   -1.0180 hn        1 MOL      0.159375
     87 H36         5.8800    1.0210   -2.5930 h1        1 MOL      0.069965
     88 H37         3.3840   -0.2160   -1.5810 h1        1 MOL      0.008520
     89 H38         2.3440    1.5850   -2.1260 ho        1 MOL      0.398650
     90 H39         4.2530   -1.2180   -3.5050 hc        1 MOL      0.062525
     91 H40         2.6190   -0.6970   -3.5090 hc        1 MOL      0.062525
     92 H41         3.8480    0.3170   -4.4600 hc        1 MOL      0.062525
     93 N9          5.8320    2.6860   -0.8260 n         1 MOL     -0.268435
     94 C29         5.9310    3.7940    0.1970 c3        1 MOL     -0.248419
     95 C30         4.6450    4.5160    0.6020 c         1 MOL      0.449251
     96 O16         4.7390    5.4620    1.4250 o         1 MOL     -0.545154
     97 C31         6.9410    4.8300   -0.3450 c3        1 MOL      0.293176
     98 C32         6.3360    5.6560   -1.5370 c3        1 MOL      0.019108
     99 C33         8.2500    4.2110   -0.6770 c3        1 MOL     -0.316570
    100 C34         7.2250    6.7690   -2.0390 c3        1 MOL     -0.117779
    101 H42         6.2360    2.8640   -1.7310 hn        1 MOL      0.217898
    102 H43         6.3420    3.3690    1.1090 h1        1 MOL      0.170348
    103 H44         7.1290    5.5090    0.4910 hc        1 MOL     -0.000552
    104 H45         5.5070    6.1550   -1.0370 hc        1 MOL      0.015901
    105 H46         5.9580    5.0970   -2.3920 hc        1 MOL      0.015901
    106 H47         8.9400    5.0590   -0.6620 hc        1 MOL      0.073801
    107 H48         8.5180    3.5140    0.1180 hc        1 MOL      0.073801
    108 H49         8.2910    3.7140   -1.6400 hc        1 MOL      0.073801
    109 H50         8.1360    6.3550   -2.4830 hc        1 MOL      0.021530
    110 H51         6.6640    7.2950   -2.8170 hc        1 MOL      0.021530
    111 H52         7.5620    7.4860   -1.2900 hc        1 MOL      0.021530
    112 N10         3.4570    4.1140    0.0740 n         1 MOL     -0.072082
    113 C35         2.1210    4.7120    0.2050 c3        1 MOL     -0.225381
    114 C36         0.9840    3.6590    0.0040 c         1 MOL      0.468917
    115 O17         1.1130    2.7780   -0.8190 o         1 MOL     -0.356539
    116 C37         1.9480    5.8240   -0.8850 c3        1 MOL      0.411629
    117 C38         2.1840    5.4640   -2.2980 c3        1 MOL     -0.273389
    118 O18         2.7330    6.9580   -0.5090 oh        1 MOL     -0.622254
    119 H53         3.4860    3.4610   -0.6960 hn        1 MOL      0.017936
    120 H54         2.0430    5.1260    1.2150 h1        1 MOL      0.098634
    121 H55         0.8890    6.0850   -0.8270 h1        1 MOL     -0.033721
    122 H56         2.8460    7.0210    0.4410 ho        1 MOL      0.379004
    123 H57         1.9920    6.3640   -2.8860 hc        1 MOL      0.086082
    124 H58         3.1820    5.0590   -2.4850 hc        1 MOL      0.086082
    125 H59         1.4640    4.6840   -2.5450 hc        1 MOL      0.086082
    126 N11        -0.1300    3.9380    0.6590 n         1 MOL     -0.368712
    127 C39        -1.2830    3.0450    0.5160 c3        1 MOL      0.040151
    128 C40        -1.8210    3.0500   -0.9080 c         1 MOL      0.313500
    129 O19        -1.5030    3.9140   -1.7280 o         1 MOL     -0.482829
    130 C41        -2.3880    3.5330    1.4940 c3        1 MOL      0.110849
    131 C42        -2.9580    4.8910    1.0280 c3        1 MOL     -0.254587
    132 O20        -1.9450    3.6950    2.8330 oh        1 MOL     -0.615605
    133 H60        -0.0850    4.6510    1.3650 hn        1 MOL      0.255892
    134 H61        -1.0250    2.0190    0.7620 h1        1 MOL      0.098609
    135 H62        -3.1560    2.7540    1.5190 h1        1 MOL      0.204245
    136 H63        -1.4650    4.5110    2.6770 ho        1 MOL      0.401515
    137 H64        -3.5880    4.8690    0.1360 hc        1 MOL      0.068047
    138 H65        -3.6650    5.4250    1.6740 hc        1 MOL      0.068047
    139 H66        -2.2030    5.6210    0.7510 hc        1 MOL      0.068047
    140 N12        -2.7660    2.1080   -1.2490 n         1 MOL     -0.078403
    141 C43        -3.3520    1.9780   -2.6100 c3        1 MOL      0.117481
    142 C44        -3.5330    0.5310   -2.9980 c         1 MOL      0.486818
    143 O21        -3.8120    0.3000   -4.2240 o         1 MOL     -0.625138
    144 C45        -4.6240    2.8190   -2.6430 c3        1 MOL     -0.140402
    145 C46        -5.8680    2.3990   -1.7460 c3        1 MOL     -0.134765
    146 C47        -7.1840    3.2350   -1.9220 c3        1 MOL     -0.050110
    147 C48        -6.9870    4.7120   -1.5210 c3        1 MOL      0.173637
    148 N13        -8.2380    5.3930   -1.8470 n4        1 MOL     -0.447492
    149 H67        -2.8830    1.3140   -0.6380 hn        1 MOL     -0.162572
    150 H68        -2.6500    2.4030   -3.3230 h1        1 MOL      0.078653
    151 H69        -4.8000    2.6700   -3.7100 hc        1 MOL      0.029932
    152 H70        -4.3740    3.8660   -2.4330 hc        1 MOL      0.029932
    153 H71        -5.6740    2.2860   -0.6780 hc        1 MOL      0.077991
    154 H72        -6.0200    1.3570   -2.0390 hc        1 MOL      0.077991
    155 H73        -7.9800    2.7890   -1.3350 hc        1 MOL      0.041438
    156 H74        -7.4180    3.2830   -2.9830 hc        1 MOL      0.041438
    157 H75        -6.2070    5.2200   -2.0900 hx        1 MOL      0.055274
    158 H76        -6.7290    4.7710   -0.4630 hx        1 MOL      0.055274
    159 H77        -8.2780    5.6130   -2.8330 hn        1 MOL      0.339148
    160 H78        -9.0400    4.8850   -1.5280 hn        1 MOL      0.339148
    161 H79        -8.3080    6.2850   -1.3730 hn        1 MOL      0.339148
    162 N14        -3.4670   -0.4660   -2.1160 n         1 MOL      0.002737
    163 C49        -3.8490   -1.8250   -2.4900 c3        1 MOL     -0.100710
    164 C50        -5.4240   -1.8540   -2.5560 c         1 MOL      0.405557
    165 O22        -6.0880   -1.3610   -1.5880 o         1 MOL     -0.503942
    166 C51        -3.3150   -2.8290   -1.4050 c3        1 MOL      0.243284
    167 C52        -3.6680   -4.2900   -1.6750 c3        1 MOL     -0.793101
    168 C53        -3.3370   -4.7760   -3.0810 c         1 MOL      0.880689
    169 O23        -4.1630   -5.0420   -3.9480 o         1 MOL     -0.748673
    170 O24        -2.1500   -5.0010   -3.3370 o         1 MOL     -0.748673
    171 H80        -3.0780   -0.2430   -1.2140 hn        1 MOL      0.179291
    172 H81        -3.4030   -2.0970   -3.4410 h1        1 MOL      0.025335
    173 H82        -3.6760   -2.5370   -0.4270 hc        1 MOL     -0.030491
    174 H83        -2.2460   -2.6030   -1.3580 hc        1 MOL     -0.030491
    175 H84        -4.7500   -4.4470   -1.6100 hc        1 MOL      0.232228
    176 H85        -3.0160   -4.8790   -1.0320 hc        1 MOL      0.232228
    177 N15        -5.9960   -2.4730   -3.6110 n         1 MOL     -0.214714
    178 C54        -7.4010   -2.6550   -3.8430 c3        1 MOL     -0.111224
    179 H86        -7.7200   -2.0060   -4.6590 h1        1 MOL      0.071707
    180 H87        -7.5940   -3.6950   -4.1100 h1        1 MOL      0.071707
    181 H88        -7.9550   -2.4030   -2.9390 h1        1 MOL      0.071707
    182 H89        -5.3360   -2.7970   -4.2970 hn        1 MOL      0.313115
    183 Ca1         0.4370   -4.4250   -3.0950 Ca        1 MOL      1.740372
    184 O25         2.3920   -3.1930   -4.4230 oh        1 MOL     -0.913940
    185 H90         3.3290   -3.3030   -4.3070 ho        1 MOL      0.448315
    186 H91         2.3000   -2.8270   -5.2980 ho        1 MOL      0.448315
    187 O26         0.2390   -5.7030   -5.4290 oh        1 MOL     -0.913940
    188 H92         0.8610   -5.8450   -6.1430 ho        1 MOL      0.448315
    189 H93        -0.6170   -5.6310   -5.8630 ho        1 MOL      0.448315
    190 O27        -0.4570   -1.9770   -4.3550 oh        1 MOL     -0.913940
    191 H94        -0.3350   -1.2940   -3.6910 ho        1 MOL      0.448315
    192 H95        -0.8880   -1.5330   -5.0840 ho        1 MOL      0.448315
@<TRIPOS>BOND
     1    1    2 1   
     2    1    4 1   
     3    1    5 1   
     4    1    6 1   
     5    2    3 2   
     6    2    7 1   
     7    7    8 1   
     8    7   15 1   
     9    8    9 1   
    10    8   11 1   
    11    8   16 1   
    12    9   10 2   
    13    9   19 1   
    14   11   12 1   
    15   11   17 1   
    16   11   18 1   
    17   12   13 1   
    18   12   14 1   
    19   19   20 1   
    20   19   28 1   
    21   20   21 1   
    22   20   23 1   
    23   20   29 1   
    24   21   22 2   
    25   21   41 1   
    26   23   24 1   
    27   23   30 1   
    28   23   31 1   
    29   24   25 1   
    30   24   32 1   
    31   24   33 1   
    32   25   26 1   
    33   25   34 1   
    34   25   35 1   
    35   26   27 1   
    36   26   36 1   
    37   26   37 1   
    38   27   38 1   
    39   27   39 1   
    40   27   40 1   
    41   41   42 1   
    42   41   49 1   
    43   42   43 1   
    44   42   45 1   
    45   42   50 1   
    46   43   44 2   
    47   43   53 1   
    48   45   46 1   
    49   45   51 1   
    50   45   52 1   
    51   46   47 1   
    52   46   48 1   
    53   53   54 1   
    54   53   57 1   
    55   54   55 1   
    56   54   58 1   
    57   54   59 1   
    58   55   56 2   
    59   55   60 1   
    60   60   61 1   
    61   60   68 1   
    62   61   62 1   
    63   61   64 1   
    64   61   69 1   
    65   62   63 2   
    66   62   72 1   
    67   64   65 1   
    68   64   70 1   
    69   64   71 1   
    70   65   66 1   
    71   65   67 1   
    72   72   73 1   
    73   72   76 1   
    74   73   74 1   
    75   73   77 1   
    76   73   78 1   
    77   74   75 2   
    78   74   79 1   
    79   79   80 1   
    80   79   86 1   
    81   80   81 1   
    82   80   83 1   
    83   80   87 1   
    84   81   82 2   
    85   81   93 1   
    86   83   84 1   
    87   83   85 1   
    88   83   88 1   
    89   84   90 1   
    90   84   91 1   
    91   84   92 1   
    92   85   89 1   
    93   93   94 1   
    94   93  101 1   
    95   94   95 1   
    96   94   97 1   
    97   94  102 1   
    98   95   96 2   
    99   95  112 1   
   100   97   98 1   
   101   97   99 1   
   102   97  103 1   
   103   98  100 1   
   104   98  104 1   
   105   98  105 1   
   106   99  106 1   
   107   99  107 1   
   108   99  108 1   
   109  100  109 1   
   110  100  110 1   
   111  100  111 1   
   112  112  113 1   
   113  112  119 1   
   114  113  114 1   
   115  113  116 1   
   116  113  120 1   
   117  114  115 2   
   118  114  126 1   
   119  116  117 1   
   120  116  118 1   
   121  116  121 1   
   122  117  123 1   
   123  117  124 1   
   124  117  125 1   
   125  118  122 1   
   126  126  127 1   
   127  126  133 1   
   128  127  128 1   
   129  127  130 1   
   130  127  134 1   
   131  128  129 2   
   132  128  140 1   
   133  130  131 1   
   134  130  132 1   
   135  130  135 1   
   136  131  137 1   
   137  131  138 1   
   138  131  139 1   
   139  132  136 1   
   140  140  141 1   
   141  140  149 1   
   142  141  142 1   
   143  141  144 1   
   144  141  150 1   
   145  142  143 2   
   146  142  162 1   
   147  144  145 1   
   148  144  151 1   
   149  144  152 1   
   150  145  146 1   
   151  145  153 1   
   152  145  154 1   
   153  146  147 1   
   154  146  155 1   
   155  146  156 1   
   156  147  148 1   
   157  147  157 1   
   158  147  158 1   
   159  148  159 1   
   160  148  160 1   
   161  148  161 1   
   162  162  163 1   
   163  162  171 1   
   164  163  164 1   
   165  163  166 1   
   166  163  172 1   
   167  164  165 2   
   168  164  177 1   
   169  166  167 1   
   170  166  173 1   
   171  166  174 1   
   172  167  168 1   
   173  167  175 1   
   174  167  176 1   
   175  168  169 1   
   176  168  170 1   
   177  177  178 1   
   178  177  182 1   
   179  178  179 1   
   180  178  180 1   
   181  178  181 1   
   182  184  185 1   
   183  184  186 1   
   184  187  188 1   
   185  187  189 1   
   186  190  191 1   
   187  190  192 1   
@<TRIPOS>SUBSTRUCTURE
     1 MOL         1 TEMP              0 ****  ****    0 ROOT
