@<TRIPOS>MOLECULE
MOL
  192   187     1     0     0
SMALL
resp


@<TRIPOS>ATOM
      1 C1          4.5480   -1.9050    4.7200 c3        1 MOL     -0.414664
      2 C2          4.8680   -1.2070    3.4090 c         1 MOL      0.591380
      3 O1          3.9790   -0.6750    2.7650 o         1 MOL     -0.512258
      4 H1          3.4770   -1.8400    4.9120 hc        1 MOL      0.117809
      5 H2          4.8420   -2.9520    4.6570 hc        1 MOL      0.117809
      6 H3          5.0920   -1.4210    5.5310 hc        1 MOL      0.117809
      7 N1          6.1310   -1.2610    2.9580 n         1 MOL     -0.280968
      8 C3          6.7540   -0.4880    1.9410 c3        1 MOL     -0.194073
      9 C4          6.6430   -1.1020    0.4980 c         1 MOL      0.285801
     10 O2          7.0280   -0.4530   -0.4860 o         1 MOL     -0.482076
     11 C5          8.2720   -0.2480    2.2840 c3        1 MOL      0.108773
     12 C6          9.0720   -1.4640    2.5480 c         1 MOL      0.622270
     13 O3          8.7110   -2.3470    3.4320 o         1 MOL     -0.687643
     14 O4         10.1940   -1.4280    2.0060 o         1 MOL     -0.687643
     15 H4          6.7420   -1.5920    3.6840 hn        1 MOL      0.176117
     16 H5          6.1920    0.4420    1.9970 h1        1 MOL      0.124896
     17 H6          8.2950    0.4820    3.0950 hc        1 MOL      0.001059
     18 H7          8.8000    0.3150    1.5050 hc        1 MOL      0.001059
     19 N2          6.1660   -2.3570    0.4270 n         1 MOL     -0.402711
     20 C7          5.8860   -3.1260   -0.8730 c3        1 MOL      0.399281
     21 C8          4.5070   -3.8040   -0.9970 c         1 MOL      0.342197
     22 O5          4.4430   -4.9060   -1.4780 o         1 MOL     -0.533345
     23 C9          7.0690   -4.1170   -1.2480 c3        1 MOL     -0.123282
     24 C10         8.4430   -3.5180   -1.2120 c3        1 MOL      0.149779
     25 C11         9.5360   -4.5980   -1.3700 c3        1 MOL     -0.340455
     26 C12         9.3620   -5.3390   -2.6920 c3        1 MOL      0.181857
     27 N3         10.4880   -6.3080   -3.0440 n4        1 MOL     -0.429814
     28 H8          6.1800   -2.8270    1.3180 hn        1 MOL      0.225980
     29 H9          5.8520   -2.3640   -1.6530 h1        1 MOL      0.007328
     30 H10         6.8900   -4.4160   -2.2870 hc        1 MOL      0.016538
     31 H11         6.9460   -4.9840   -0.6150 hc        1 MOL      0.016538
     32 H12         8.6450   -2.7900   -0.4210 hc        1 MOL      0.030743
     33 H13         8.4510   -2.8550   -2.0810 hc        1 MOL      0.030743
     34 H14         9.5060   -5.2300   -0.4860 hc        1 MOL      0.117367
     35 H15        10.4520   -4.0200   -1.2690 hc        1 MOL      0.117367
     36 H16         9.2750   -4.5640   -3.4510 hx        1 MOL      0.058784
     37 H17         8.3990   -5.8580   -2.7540 hx        1 MOL      0.058784
     38 H18        10.1930   -6.8540   -3.8430 hn        1 MOL      0.336492
     39 H19        11.3880   -5.9770   -3.3400 hn        1 MOL      0.336492
     40 H20        10.6970   -6.9270   -2.2660 hn        1 MOL      0.336492
     41 N4          3.3570   -3.1770   -0.6210 n         1 MOL     -0.376912
     42 C13         3.1560   -1.8770   -0.0550 c3        1 MOL      0.219059
     43 C14         3.4240   -0.7270   -0.9720 c         1 MOL      0.516292
     44 O6          3.4640   -0.8820   -2.1970 o         1 MOL     -0.541186
     45 C15         1.8100   -1.9160    0.7700 c3        1 MOL     -0.514312
     46 C16         0.6740   -2.1450   -0.3020 c         1 MOL      0.756994
     47 O7          0.3100   -1.1950   -0.9550 o         1 MOL     -0.688491
     48 O8          0.3670   -3.2970   -0.6140 o         1 MOL     -0.688491
     49 H21         2.5430   -3.7750   -0.6190 hn        1 MOL      0.316138
     50 H22         3.8720   -1.7380    0.7560 h1        1 MOL      0.010641
     51 H23         1.7300   -1.0230    1.3940 hc        1 MOL      0.094363
     52 H24         1.9100   -2.8080    1.3900 hc        1 MOL      0.094363
     53 N5          3.6270    0.3850   -0.3180 n         1 MOL     -0.224519
     54 C17         4.0500    1.6740   -0.7770 c3        1 MOL     -0.140569
     55 C18         2.8650    2.4730   -1.3640 c         1 MOL      0.597892
     56 O9          1.7330    1.9930   -1.3890 o         1 MOL     -0.678074
     57 H25         3.5950    0.2620    0.6850 hn        1 MOL      0.284433
     58 H26         4.8850    1.5810   -1.4720 h1        1 MOL      0.075249
     59 H27         4.4410    2.2410    0.0730 h1        1 MOL      0.075249
     60 N6          3.2480    3.5700   -1.9060 n         1 MOL     -0.382639
     61 C19         2.3590    4.6840   -2.3820 c3        1 MOL      0.179529
     62 C20         2.8930    6.1080   -2.3630 c         1 MOL      0.485831
     63 O10         4.0950    6.2700   -2.5990 o         1 MOL     -0.522028
     64 C21         1.9300    4.3520   -3.8600 c3        1 MOL     -0.266717
     65 C22         1.3550    2.9370   -4.1670 c         1 MOL      0.643603
     66 O11         0.1430    2.7950   -3.7600 o         1 MOL     -0.641416
     67 O12         2.0840    2.1250   -4.7380 o         1 MOL     -0.641416
     68 H28         4.2520    3.6690   -1.9520 hn        1 MOL      0.269411
     69 H29         1.4590    4.7020   -1.7790 h1        1 MOL      0.018166
     70 H30         2.8820    4.3270   -4.3910 hc        1 MOL      0.074933
     71 H31         1.3630    5.1660   -4.3170 hc        1 MOL      0.074933
     72 N7          2.0180    7.1660   -2.3080 n         1 MOL     -0.530410
     73 C23         0.5320    7.1050   -2.2740 c3        1 MOL      0.060547
     74 C24        -0.0150    6.3410   -1.0280 c         1 MOL      0.466636
     75 O13         0.6480    6.0910   -0.0210 o         1 MOL     -0.425919
     76 H32         2.4710    7.9820   -2.6840 hn        1 MOL      0.328722
     77 H33         0.2060    6.6980   -3.2330 h1        1 MOL      0.068041
     78 H34         0.0530    8.0750   -2.1310 h1        1 MOL      0.068041
     79 N8         -1.3090    5.8440   -1.1240 n         1 MOL     -0.701290
     80 C25        -1.9170    5.3260    0.1130 c3        1 MOL      0.593910
     81 C26        -1.2630    4.0180    0.5620 c         1 MOL      0.441439
     82 O14        -1.0480    3.1770   -0.3110 o         1 MOL     -0.569941
     83 C27        -3.4050    5.0770    0.0330 c3        1 MOL      0.183855
     84 C28        -4.1650    6.0570   -0.8940 c3        1 MOL     -0.332596
     85 O15        -3.9620    5.3210    1.3660 oh        1 MOL     -0.679725
     86 H35        -1.8750    6.0420   -1.9400 hn        1 MOL      0.337897
     87 H36        -1.7230    6.0080    0.9400 h1        1 MOL     -0.047970
     88 H37        -3.6460    4.0940   -0.3730 h1        1 MOL      0.046629
     89 H38        -4.8660    5.6070    1.1960 ho        1 MOL      0.433249
     90 H39        -5.1950    5.6890   -0.9120 hc        1 MOL      0.086740
     91 H40        -4.0770    7.0340   -0.4180 hc        1 MOL      0.086740
     92 H41        -3.7330    6.0980   -1.8970 hc        1 MOL      0.086740
     93 N9         -0.9890    3.7420    1.8670 n         1 MOL     -0.555101
     94 C29        -0.1030    2.7160    2.4850 c3        1 MOL      0.112026
     95 C30        -0.4160    1.2780    2.1330 c         1 MOL      0.182144
     96 O16        -0.1950    0.8040    0.9840 o         1 MOL     -0.579334
     97 C31         1.3840    3.0340    2.1890 c3        1 MOL      0.063255
     98 C32         1.7940    4.4770    2.6080 c3        1 MOL     -0.056312
     99 C33         2.3620    1.9770    2.8700 c3        1 MOL     -0.513051
    100 C34         3.1730    4.9210    2.1210 c3        1 MOL     -0.090181
    101 H42        -1.3510    4.4420    2.5070 hn        1 MOL      0.311948
    102 H43        -0.1800    2.7610    3.5690 h1        1 MOL      0.068763
    103 H44         1.5460    3.0110    1.1080 hc        1 MOL      0.207352
    104 H45         1.7160    4.4400    3.6950 hc        1 MOL      0.015433
    105 H46         1.1200    5.2680    2.2640 hc        1 MOL      0.015433
    106 H47         2.5960    2.1780    3.9130 hc        1 MOL      0.129914
    107 H48         1.9820    0.9580    2.8730 hc        1 MOL      0.129914
    108 H49         3.2420    1.9450    2.2230 hc        1 MOL      0.129914
    109 H50         3.4930    5.9140    2.4570 hc        1 MOL      0.024536
    110 H51         3.9630    4.2190    2.3920 hc        1 MOL      0.024536
    111 H52         3.1330    5.0400    1.0480 hc        1 MOL      0.024536
    112 N10        -1.0240    0.5450    3.0350 n         1 MOL     -0.038063
    113 C35        -1.1790   -0.9800    3.0050 c3        1 MOL     -0.468158
    114 C36        -2.6400   -1.4720    3.1900 c         1 MOL      0.535153
    115 O17        -2.9010   -2.6640    3.2350 o         1 MOL     -0.540454
    116 C37        -0.2830   -1.6410    4.1170 c3        1 MOL      0.459797
    117 C38        -0.6300   -1.4390    5.5490 c3        1 MOL     -0.423887
    118 O18         1.0490   -1.1830    3.9770 oh        1 MOL     -0.531771
    119 H53        -1.3050    1.0320    3.8800 hn        1 MOL      0.211729
    120 H54        -0.8520   -1.3110    2.0210 h1        1 MOL      0.263113
    121 H55        -0.2180   -2.7160    3.9330 h1        1 MOL      0.023862
    122 H56         1.2530   -1.0140    3.0470 ho        1 MOL      0.332220
    123 H57        -1.6590   -1.7780    5.6980 hc        1 MOL      0.115953
    124 H58         0.0550   -1.9800    6.2000 hc        1 MOL      0.115953
    125 H59        -0.7480   -0.3680    5.7240 hc        1 MOL      0.115953
    126 N11        -3.5690   -0.5090    3.2260 n         1 MOL     -0.106786
    127 C39        -4.9440   -0.8620    3.6690 c3        1 MOL     -0.121163
    128 C40        -5.9760   -0.8710    2.5230 c         1 MOL      0.560566
    129 O19        -6.5170    0.1660    2.1230 o         1 MOL     -0.520214
    130 C41        -5.5000    0.1470    4.8040 c3        1 MOL      0.314412
    131 C42        -4.8640   -0.1890    6.1390 c3        1 MOL     -0.241716
    132 O20        -5.1470    1.4570    4.5870 oh        1 MOL     -0.645806
    133 H60        -3.2520    0.4010    2.9400 hn        1 MOL      0.193103
    134 H61        -4.9950   -1.8110    4.2080 h1        1 MOL      0.116819
    135 H62        -6.5860    0.1110    4.8350 h1        1 MOL      0.022271
    136 H63        -5.8470    2.0170    4.9190 ho        1 MOL      0.428814
    137 H64        -3.7740   -0.2400    6.1560 hc        1 MOL      0.047733
    138 H65        -5.1220    0.6480    6.7850 hc        1 MOL      0.047733
    139 H66        -5.2050   -1.1740    6.4460 hc        1 MOL      0.047733
    140 N12        -6.0510   -1.9870    1.8330 n         1 MOL     -0.804970
    141 C43        -6.4910   -2.1830    0.4000 c3        1 MOL      0.740924
    142 C44        -5.6380   -1.4790   -0.6770 c         1 MOL      0.161665
    143 O21        -5.0500   -0.3710   -0.4780 o         1 MOL     -0.478749
    144 C45        -7.9900   -1.9460    0.1610 c3        1 MOL     -0.781802
    145 C46        -8.8560   -2.6780    1.1680 c3        1 MOL     -0.004157
    146 C47       -10.2760   -2.8000    0.5440 c3        1 MOL      0.077058
    147 C48       -11.2180   -3.6100    1.3630 c3        1 MOL      0.039471
    148 N13       -12.4540   -3.9300    0.6720 n4        1 MOL     -0.097904
    149 H67        -5.5580   -2.8130    2.1380 hn        1 MOL      0.342368
    150 H68        -6.3850   -3.2360    0.1610 h1        1 MOL     -0.086371
    151 H69        -8.2170   -2.2400   -0.8580 hc        1 MOL      0.227682
    152 H70        -8.1650   -0.8780    0.3060 hc        1 MOL      0.227682
    153 H71        -8.9290   -2.0910    2.0840 hc        1 MOL      0.082924
    154 H72        -8.4250   -3.6590    1.3740 hc        1 MOL      0.082924
    155 H73       -10.1780   -3.3500   -0.3840 hc        1 MOL      0.009901
    156 H74       -10.6430   -1.7870    0.3490 hc        1 MOL      0.009901
    157 H75       -11.5260   -3.0800    2.2700 hx        1 MOL      0.041721
    158 H76       -10.7130   -4.5230    1.6740 hx        1 MOL      0.041721
    159 H77       -12.3470   -4.4910   -0.1680 hn        1 MOL      0.203072
    160 H78       -13.0920   -4.4270    1.2710 hn        1 MOL      0.203072
    161 H79       -12.9200   -3.1200    0.2800 hn        1 MOL      0.203072
    162 N14        -5.5020   -2.1730   -1.7670 n         1 MOL     -0.201430
    163 C49        -4.6110   -1.8110   -2.8240 c3        1 MOL      0.113075
    164 C50        -3.0870   -1.9360   -2.3010 c         1 MOL      0.382951
    165 O22        -2.3520   -0.9850   -2.5680 o         1 MOL     -0.566098
    166 C51        -4.9190   -2.7610   -3.9760 c3        1 MOL      0.275483
    167 C52        -6.2760   -2.5320   -4.6850 c3        1 MOL     -0.252045
    168 C53        -6.7280   -3.6190   -5.7120 c         1 MOL      0.728231
    169 O23        -6.3360   -3.4690   -6.8550 o         1 MOL     -0.647688
    170 O24        -7.5150   -4.5910   -5.4920 o         1 MOL     -0.647688
    171 H80        -6.0190   -3.0290   -1.9290 hn        1 MOL      0.255440
    172 H81        -4.8900   -0.7980   -3.1240 h1        1 MOL      0.058120
    173 H82        -4.9860   -3.7720   -3.5890 hc        1 MOL     -0.044793
    174 H83        -4.1920   -2.7310   -4.7850 hc        1 MOL     -0.044793
    175 H84        -6.2040   -1.5420   -5.1340 hc        1 MOL     -0.012677
    176 H85        -7.0440   -2.6110   -3.9190 hc        1 MOL     -0.012677
    177 N15        -2.6530   -2.9100   -1.5010 n         1 MOL     -0.217505
    178 C54        -3.2550   -4.2060   -1.2820 c3        1 MOL     -0.078677
    179 H86        -3.9960   -4.1330   -0.4870 h1        1 MOL      0.043057
    180 H87        -3.7380   -4.5430   -2.1990 h1        1 MOL      0.043057
    181 H88        -2.4840   -4.9210   -0.9940 h1        1 MOL      0.043057
    182 H89        -1.9070   -2.6530   -0.8590 hn        1 MOL      0.302694
    183 Ca1        -0.6390    0.9510   -1.7510 Ca        1 MOL      1.781731
    184 O25        -2.7580    0.8940   -0.0610 oh        1 MOL     -0.916360
    185 H90        -2.7560    1.3250    0.8000 ho        1 MOL      0.437695
    186 H91        -3.6480    0.5730   -0.1600 ho        1 MOL      0.437695
    187 O26         1.1090   -0.1370   -3.4140 oh        1 MOL     -0.916360
    188 H92         1.5510    0.5930   -3.8590 ho        1 MOL      0.437695
    189 H93         1.7580   -0.4620   -2.7950 ho        1 MOL      0.437695
    190 O27        -2.7710    2.2490   -2.9800 oh        1 MOL     -0.916360
    191 H94        -3.4600    2.7770   -2.5680 ho        1 MOL      0.437695
    192 H95        -3.2330    1.7370   -3.6440 ho        1 MOL      0.437695
@<TRIPOS>BOND
     1    1    2 1   
     2    1    4 1   
     3    1    5 1   
     4    1    6 1   
     5    2    3 2   
     6    2    7 1   
     7    7    8 1   
     8    7   15 1   
     9    8    9 1   
    10    8   11 1   
    11    8   16 1   
    12    9   10 2   
    13    9   19 1   
    14   11   12 1   
    15   11   17 1   
    16   11   18 1   
    17   12   13 1   
    18   12   14 1   
    19   19   20 1   
    20   19   28 1   
    21   20   21 1   
    22   20   23 1   
    23   20   29 1   
    24   21   22 2   
    25   21   41 1   
    26   23   24 1   
    27   23   30 1   
    28   23   31 1   
    29   24   25 1   
    30   24   32 1   
    31   24   33 1   
    32   25   26 1   
    33   25   34 1   
    34   25   35 1   
    35   26   27 1   
    36   26   36 1   
    37   26   37 1   
    38   27   38 1   
    39   27   39 1   
    40   27   40 1   
    41   41   42 1   
    42   41   49 1   
    43   42   43 1   
    44   42   45 1   
    45   42   50 1   
    46   43   44 2   
    47   43   53 1   
    48   45   46 1   
    49   45   51 1   
    50   45   52 1   
    51   46   47 1   
    52   46   48 1   
    53   53   54 1   
    54   53   57 1   
    55   54   55 1   
    56   54   58 1   
    57   54   59 1   
    58   55   56 2   
    59   55   60 1   
    60   60   61 1   
    61   60   68 1   
    62   61   62 1   
    63   61   64 1   
    64   61   69 1   
    65   62   63 2   
    66   62   72 1   
    67   64   65 1   
    68   64   70 1   
    69   64   71 1   
    70   65   66 1   
    71   65   67 1   
    72   72   73 1   
    73   72   76 1   
    74   73   74 1   
    75   73   77 1   
    76   73   78 1   
    77   74   75 2   
    78   74   79 1   
    79   79   80 1   
    80   79   86 1   
    81   80   81 1   
    82   80   83 1   
    83   80   87 1   
    84   81   82 2   
    85   81   93 1   
    86   83   84 1   
    87   83   85 1   
    88   83   88 1   
    89   84   90 1   
    90   84   91 1   
    91   84   92 1   
    92   85   89 1   
    93   93   94 1   
    94   93  101 1   
    95   94   95 1   
    96   94   97 1   
    97   94  102 1   
    98   95   96 2   
    99   95  112 1   
   100   97   98 1   
   101   97   99 1   
   102   97  103 1   
   103   98  100 1   
   104   98  104 1   
   105   98  105 1   
   106   99  106 1   
   107   99  107 1   
   108   99  108 1   
   109  100  109 1   
   110  100  110 1   
   111  100  111 1   
   112  112  113 1   
   113  112  119 1   
   114  113  114 1   
   115  113  116 1   
   116  113  120 1   
   117  114  115 2   
   118  114  126 1   
   119  116  117 1   
   120  116  118 1   
   121  116  121 1   
   122  117  123 1   
   123  117  124 1   
   124  117  125 1   
   125  118  122 1   
   126  126  127 1   
   127  126  133 1   
   128  127  128 1   
   129  127  130 1   
   130  127  134 1   
   131  128  129 2   
   132  128  140 1   
   133  130  131 1   
   134  130  132 1   
   135  130  135 1   
   136  131  137 1   
   137  131  138 1   
   138  131  139 1   
   139  132  136 1   
   140  140  141 1   
   141  140  149 1   
   142  141  142 1   
   143  141  144 1   
   144  141  150 1   
   145  142  143 2   
   146  142  162 1   
   147  144  145 1   
   148  144  151 1   
   149  144  152 1   
   150  145  146 1   
   151  145  153 1   
   152  145  154 1   
   153  146  147 1   
   154  146  155 1   
   155  146  156 1   
   156  147  148 1   
   157  147  157 1   
   158  147  158 1   
   159  148  159 1   
   160  148  160 1   
   161  148  161 1   
   162  162  163 1   
   163  162  171 1   
   164  163  164 1   
   165  163  166 1   
   166  163  172 1   
   167  164  165 2   
   168  164  177 1   
   169  166  167 1   
   170  166  173 1   
   171  166  174 1   
   172  167  168 1   
   173  167  175 1   
   174  167  176 1   
   175  168  169 1   
   176  168  170 1   
   177  177  178 1   
   178  177  182 1   
   179  178  179 1   
   180  178  180 1   
   181  178  181 1   
   182  184  185 1   
   183  184  186 1   
   184  187  188 1   
   185  187  189 1   
   186  190  191 1   
   187  190  192 1   
@<TRIPOS>SUBSTRUCTURE
     1 MOL         1 TEMP              0 ****  ****    0 ROOT
