@<TRIPOS>MOLECULE
MOL
  192   187     1     0     0
SMALL
resp


@<TRIPOS>ATOM
      1 C1         12.5440    5.7840   -2.4730 c3        1 MOL     -0.316901
      2 C2         12.3990    4.5040   -1.5730 c         1 MOL      0.572887
      3 O1         13.4250    3.9330   -1.0520 o         1 MOL     -0.537228
      4 H1         13.2390    6.4810   -2.0040 hc        1 MOL      0.093821
      5 H2         12.9240    5.4980   -3.4540 hc        1 MOL      0.093821
      6 H3         11.5720    6.2620   -2.5850 hc        1 MOL      0.093821
      7 N1         11.1570    4.0840   -1.2000 n         1 MOL     -0.127549
      8 C3         10.9210    3.0800   -0.2470 c3        1 MOL     -0.720966
      9 C4          9.5740    2.3180   -0.5240 c         1 MOL      0.828115
     10 O2          8.5730    2.8820   -0.9350 o         1 MOL     -0.654451
     11 C5         10.9300    3.6660    1.1740 c3        1 MOL     -0.043669
     12 C6         10.0330    4.8770    1.4660 c         1 MOL      0.664246
     13 O3         10.4830    5.7710    2.1490 o         1 MOL     -0.678478
     14 O4          8.8700    4.8820    1.0430 o         1 MOL     -0.678478
     15 H4         10.3140    4.4350   -1.6430 hn        1 MOL      0.159086
     16 H5         11.6690    2.3030   -0.3600 h1        1 MOL      0.208272
     17 H6         11.9610    3.9990    1.2650 hc        1 MOL      0.096906
     18 H7         10.7180    2.9340    1.9570 hc        1 MOL      0.096906
     19 N2          9.5760    1.0310   -0.2070 n         1 MOL     -0.481853
     20 C7          8.4150    0.1000   -0.3070 c3        1 MOL      0.018061
     21 C8          7.5240    0.1150    0.9100 c         1 MOL      0.483439
     22 O5          8.0260    0.0190    2.0190 o         1 MOL     -0.483970
     23 C9          8.9580   -1.3310   -0.7170 c3        1 MOL     -0.126835
     24 C10         9.7270   -2.0640    0.3930 c3        1 MOL     -0.032684
     25 C11        10.0560   -3.4610   -0.0300 c3        1 MOL     -0.007263
     26 C12         8.8550   -4.4010   -0.0490 c3        1 MOL      0.021618
     27 N3          9.2620   -5.7360   -0.5470 n4        1 MOL     -0.251136
     28 H8         10.4230    0.6990    0.2380 hn        1 MOL      0.329669
     29 H9          7.7030    0.4300   -1.0650 h1        1 MOL      0.038461
     30 H10         9.6120   -1.1480   -1.5730 hc        1 MOL      0.056008
     31 H11         8.1160   -1.9450   -1.0480 hc        1 MOL      0.056008
     32 H12         9.1150   -2.1170    1.2890 hc        1 MOL      0.056566
     33 H13        10.6270   -1.4710    0.5850 hc        1 MOL      0.056566
     34 H14        10.7160   -3.9600    0.6830 hc        1 MOL      0.017046
     35 H15        10.5190   -3.4750   -1.0170 hc        1 MOL      0.017046
     36 H16         8.1070   -3.9670   -0.7140 hx        1 MOL      0.100220
     37 H17         8.4350   -4.4820    0.9590 hx        1 MOL      0.100220
     38 H18         9.9090   -6.0940    0.1370 hn        1 MOL      0.273355
     39 H19         8.5860   -6.4800   -0.6320 hn        1 MOL      0.273355
     40 H20         9.7660   -5.7820   -1.4250 hn        1 MOL      0.273355
     41 N4          6.2120    0.1620    0.6370 n         1 MOL     -0.322667
     42 C13         5.1430   -0.1420    1.5660 c3        1 MOL      0.052956
     43 C14         3.8520   -0.2350    0.6980 c         1 MOL      0.439436
     44 O6          3.7360    0.4410   -0.3490 o         1 MOL     -0.513694
     45 C15         4.9430    1.0350    2.4940 c3        1 MOL     -0.181408
     46 C16         5.1670    2.4200    1.8830 c         1 MOL      0.716301
     47 O7          4.2390    3.1320    1.4610 o         1 MOL     -0.714061
     48 O8          6.3610    2.7800    1.7190 o         1 MOL     -0.714061
     49 H21         6.0060    0.1500   -0.3420 hn        1 MOL      0.166984
     50 H22         5.2640   -1.1070    2.0780 h1        1 MOL      0.070143
     51 H23         5.7030    0.9290    3.2700 hc        1 MOL      0.066010
     52 H24         3.9510    0.9770    2.9570 hc        1 MOL      0.066010
     53 N5          2.7850   -0.9850    0.9260 n         1 MOL     -0.247085
     54 C17         2.5710   -1.8160    2.0640 c3        1 MOL     -0.131984
     55 C18         2.8120   -3.2640    1.9430 c         1 MOL      0.507445
     56 O9          3.0720   -3.8410    0.8800 o         1 MOL     -0.591969
     57 H25         2.0510   -0.9770    0.2290 hn        1 MOL      0.246919
     58 H26         1.5010   -1.7780    2.2910 h1        1 MOL      0.100923
     59 H27         3.0740   -1.4450    2.9570 h1        1 MOL      0.100923
     60 N6          2.6130   -4.0590    2.9980 n         1 MOL     -0.298164
     61 C19         2.7460   -5.5060    2.9370 c3        1 MOL     -0.096839
     62 C20         1.6650   -6.1760    2.1310 c         1 MOL      0.447242
     63 O10         1.8770   -7.3040    1.5950 o         1 MOL     -0.542246
     64 C21         2.8320   -6.1200    4.3550 c3        1 MOL     -0.174403
     65 C22         1.6690   -5.6820    5.2510 c         1 MOL      0.735237
     66 O11         1.7210   -5.9130    6.4490 o         1 MOL     -0.672639
     67 O12         0.5590   -5.2470    4.7480 o         1 MOL     -0.672639
     68 H28         2.2870   -3.7060    3.8900 hn        1 MOL      0.191082
     69 H29         3.6280   -5.7080    2.3480 h1        1 MOL      0.087093
     70 H30         3.7650   -5.9340    4.9000 hc        1 MOL      0.059751
     71 H31         2.8160   -7.1880    4.0980 hc        1 MOL      0.059751
     72 N7          0.5140   -5.4990    1.8920 n         1 MOL     -0.070962
     73 C23        -0.6090   -5.9840    1.0980 c3        1 MOL     -0.265379
     74 C24        -0.6320   -5.4810   -0.4000 c         1 MOL      0.614228
     75 O13        -1.4880   -5.8800   -1.1710 o         1 MOL     -0.599101
     76 H32         0.3270   -4.6060    2.3220 hn        1 MOL      0.197848
     77 H33        -1.5160   -5.6100    1.5840 h1        1 MOL      0.113460
     78 H34        -0.4630   -7.0600    1.0260 h1        1 MOL      0.113460
     79 N8          0.1790   -4.5280   -0.6630 n         1 MOL     -0.250078
     80 C25         0.4970   -3.8310   -1.9600 c3        1 MOL     -0.185317
     81 C26         0.1160   -2.3490   -1.7390 c         1 MOL      0.394875
     82 O14         0.2630   -1.8230   -0.6730 o         1 MOL     -0.475975
     83 C27         1.9870   -3.8220   -2.3670 c3        1 MOL      0.542435
     84 C28         2.6330   -5.2310   -2.1330 c3        1 MOL     -0.764370
     85 O15         2.2280   -3.4410   -3.6290 oh        1 MOL     -0.634643
     86 H35         0.8200   -4.4590    0.1110 hn        1 MOL      0.182981
     87 H36         0.0380   -4.3880   -2.7740 h1        1 MOL      0.080310
     88 H37         2.4220   -3.0780   -1.6990 h1        1 MOL     -0.004294
     89 H38         2.1400   -4.1850   -4.2330 ho        1 MOL      0.391217
     90 H39         3.6770   -5.2350   -2.4280 hc        1 MOL      0.193803
     91 H40         2.7470   -5.5440   -1.0920 hc        1 MOL      0.193803
     92 H41         2.0190   -6.0020   -2.6080 hc        1 MOL      0.193803
     93 N9         -0.3610   -1.6980   -2.7670 n         1 MOL      0.029260
     94 C29        -0.7030   -0.2800   -2.8140 c3        1 MOL     -0.083314
     95 C30        -2.0840    0.0670   -2.2180 c         1 MOL      0.353726
     96 O16        -2.4040    1.2260   -1.8210 o         1 MOL     -0.508806
     97 C31        -0.7550    0.1510   -4.3460 c3        1 MOL      0.181232
     98 C32         0.6060   -0.1750   -5.0080 c3        1 MOL     -0.016265
     99 C33        -0.9320    1.6640   -4.4170 c3        1 MOL     -0.264563
    100 C34         1.8350    0.4410   -4.4300 c3        1 MOL     -0.301541
    101 H42        -0.4670   -2.2020   -3.6380 hn        1 MOL      0.137910
    102 H43         0.0580    0.3390   -2.3340 h1        1 MOL      0.114104
    103 H44        -1.5260   -0.3640   -4.9100 hc        1 MOL     -0.019427
    104 H45         0.6040    0.3010   -5.9870 hc        1 MOL      0.012318
    105 H46         0.7150   -1.2480   -5.2180 hc        1 MOL      0.012318
    106 H47        -1.9770    1.9410   -4.3580 hc        1 MOL      0.078849
    107 H48        -0.3890    2.1700   -3.6180 hc        1 MOL      0.078849
    108 H49        -0.6250    1.9910   -5.4160 hc        1 MOL      0.078849
    109 H50         2.0170    0.0030   -3.4440 hc        1 MOL      0.073391
    110 H51         2.6030    0.1880   -5.1490 hc        1 MOL      0.073391
    111 H52         1.7710    1.5250   -4.3320 hc        1 MOL      0.073391
    112 N10        -2.9850   -0.9300   -2.2060 n         1 MOL     -0.286379
    113 C35        -4.2580   -0.9410   -1.4100 c3        1 MOL      0.047109
    114 C36        -5.4050   -1.5200   -2.2370 c         1 MOL      0.545732
    115 O17        -5.1640   -2.2040   -3.2300 o         1 MOL     -0.515859
    116 C37        -4.0100   -1.7850   -0.1670 c3        1 MOL      0.442639
    117 C38        -3.7050   -3.2570   -0.5120 c3        1 MOL     -0.304396
    118 O18        -3.0710   -1.2010    0.7170 oh        1 MOL     -0.619849
    119 H53        -2.5950   -1.8040   -2.5190 hn        1 MOL      0.123810
    120 H54        -4.5080    0.0320   -0.9890 h1        1 MOL      0.042314
    121 H55        -5.0210   -1.7820    0.2540 h1        1 MOL     -0.088110
    122 H56        -3.3800   -0.4400    1.2240 ho        1 MOL      0.407210
    123 H57        -3.4860   -3.7610    0.4260 hc        1 MOL      0.093160
    124 H58        -4.5900   -3.6470   -0.9980 hc        1 MOL      0.093160
    125 H59        -2.9970   -3.3070   -1.3390 hc        1 MOL      0.093160
    126 N11        -6.5840   -1.2560   -1.7330 n         1 MOL     -0.501347
    127 C39        -7.8880   -1.4450   -2.4400 c3        1 MOL     -0.080375
    128 C40        -8.9150   -0.3190   -2.2190 c         1 MOL      0.696113
    129 O19        -9.7080   -0.0840   -3.1560 o         1 MOL     -0.552431
    130 C41        -8.5350   -2.7940   -2.0500 c3        1 MOL      0.218333
    131 C42        -9.7180   -3.2630   -2.8520 c3        1 MOL     -0.391502
    132 O20        -8.8810   -2.7240   -0.6900 oh        1 MOL     -0.564863
    133 H60        -6.6300   -0.7550   -0.8560 hn        1 MOL      0.290542
    134 H61        -7.6520   -1.4660   -3.5110 h1        1 MOL      0.135582
    135 H62        -7.7270   -3.5120   -2.0820 h1        1 MOL      0.072112
    136 H63        -9.3140   -3.5670   -0.5050 ho        1 MOL      0.382721
    137 H64       -10.0870   -4.2170   -2.4590 hc        1 MOL      0.114035
    138 H65       -10.4950   -2.5120   -2.7180 hc        1 MOL      0.114035
    139 H66        -9.4500   -3.3990   -3.8950 hc        1 MOL      0.114035
    140 N12        -8.9190    0.3550   -1.0050 n         1 MOL     -0.643864
    141 C43       -10.0690    1.2830   -0.6730 c3        1 MOL     -0.038344
    142 C44        -9.7030    2.2070    0.5240 c         1 MOL      0.705210
    143 O21        -9.0680    1.8090    1.5220 o         1 MOL     -0.557105
    144 C45       -11.2600    0.3860   -0.3230 c3        1 MOL     -0.390604
    145 C46       -11.1520   -0.4430    0.9100 c3        1 MOL      0.140205
    146 C47       -12.3310   -1.4650    0.9350 c3        1 MOL     -0.199448
    147 C48       -13.5950   -0.7400    1.4050 c3        1 MOL      0.145739
    148 N13       -14.8440   -1.4930    1.0950 n4        1 MOL     -0.259666
    149 H67        -8.4390   -0.1620   -0.2870 hn        1 MOL      0.362761
    150 H68       -10.2240    1.8910   -1.5600 h1        1 MOL      0.160245
    151 H69       -11.4130   -0.3090   -1.1470 hc        1 MOL      0.129543
    152 H70       -12.1330    1.0300   -0.3210 hc        1 MOL      0.129543
    153 H71       -11.2700    0.0890    1.8630 hc        1 MOL      0.037976
    154 H72       -10.2100   -0.9890    0.9940 hc        1 MOL      0.037976
    155 H73       -12.1150   -2.2670    1.6440 hc        1 MOL      0.053956
    156 H74       -12.5340   -1.8180   -0.0710 hc        1 MOL      0.053956
    157 H75       -13.6250    0.2220    0.8910 hx        1 MOL      0.062394
    158 H76       -13.6770   -0.4880    2.4670 hx        1 MOL      0.062394
    159 H77       -15.6230   -1.1230    1.6200 hn        1 MOL      0.262128
    160 H78       -15.0550   -1.6380    0.1150 hn        1 MOL      0.262128
    161 H79       -14.6600   -2.4080    1.4820 hn        1 MOL      0.262128
    162 N14       -10.0060    3.4530    0.3310 n         1 MOL     -0.504970
    163 C49        -9.7390    4.5220    1.2700 c3        1 MOL      0.024262
    164 C50        -8.3040    4.9790    1.4820 c         1 MOL      0.397168
    165 O22        -7.9570    5.3130    2.6120 o         1 MOL     -0.503729
    166 C51       -10.6250    5.6800    0.8500 c3        1 MOL     -0.003271
    167 C52       -10.9660    6.4990    2.0700 c3        1 MOL     -0.239381
    168 C53       -12.0380    5.8190    2.9360 c         1 MOL      0.719812
    169 O23       -11.9190    5.9800    4.1930 o         1 MOL     -0.682726
    170 O24       -12.9220    5.1440    2.3880 o         1 MOL     -0.682726
    171 H80       -10.4990    3.6760   -0.5210 hn        1 MOL      0.280592
    172 H81       -10.0500    4.2680    2.2760 h1        1 MOL      0.140876
    173 H82       -11.5820    5.4390    0.3940 hc        1 MOL      0.006579
    174 H83       -10.0920    6.1690    0.0320 hc        1 MOL      0.006579
    175 H84       -11.3000    7.4620    1.6900 hc        1 MOL      0.058201
    176 H85       -10.0470    6.5490    2.6540 hc        1 MOL      0.058201
    177 N15        -7.3920    5.2110    0.5250 n         1 MOL     -0.297600
    178 C54        -7.4270    5.1210   -0.9140 c3        1 MOL      0.002773
    179 H86        -8.3230    4.5820   -1.2220 h1        1 MOL      0.035973
    180 H87        -7.4410    6.1230   -1.3410 h1        1 MOL      0.035973
    181 H88        -6.5440    4.5870   -1.2660 h1        1 MOL      0.035973
    182 H89        -6.5160    5.5650    0.8860 hn        1 MOL      0.266567
    183 Ca1         6.6430    4.5870   -0.1060 Ca        1 MOL      1.711673
    184 O25         4.2120    5.5430   -0.9270 oh        1 MOL     -0.845567
    185 H90         3.5110    4.9210   -1.1240 ho        1 MOL      0.421071
    186 H91         3.8590    6.0990   -0.2380 ho        1 MOL      0.421071
    187 O26         5.7380    6.1910    1.8110 oh        1 MOL     -0.845567
    188 H92         5.9970    6.9050    2.3960 ho        1 MOL      0.421071
    189 H93         4.8510    6.4100    1.5470 ho        1 MOL      0.421071
    190 O27         5.2590    2.3720   -1.4740 oh        1 MOL     -0.845567
    191 H94         5.7020    1.7970   -2.0980 ho        1 MOL      0.421071
    192 H95         4.6210    1.8130   -1.0360 ho        1 MOL      0.421071
@<TRIPOS>BOND
     1    1    2 1   
     2    1    4 1   
     3    1    5 1   
     4    1    6 1   
     5    2    3 2   
     6    2    7 1   
     7    7    8 1   
     8    7   15 1   
     9    8    9 1   
    10    8   11 1   
    11    8   16 1   
    12    9   10 2   
    13    9   19 1   
    14   11   12 1   
    15   11   17 1   
    16   11   18 1   
    17   12   13 1   
    18   12   14 1   
    19   19   20 1   
    20   19   28 1   
    21   20   21 1   
    22   20   23 1   
    23   20   29 1   
    24   21   22 2   
    25   21   41 1   
    26   23   24 1   
    27   23   30 1   
    28   23   31 1   
    29   24   25 1   
    30   24   32 1   
    31   24   33 1   
    32   25   26 1   
    33   25   34 1   
    34   25   35 1   
    35   26   27 1   
    36   26   36 1   
    37   26   37 1   
    38   27   38 1   
    39   27   39 1   
    40   27   40 1   
    41   41   42 1   
    42   41   49 1   
    43   42   43 1   
    44   42   45 1   
    45   42   50 1   
    46   43   44 2   
    47   43   53 1   
    48   45   46 1   
    49   45   51 1   
    50   45   52 1   
    51   46   47 1   
    52   46   48 1   
    53   53   54 1   
    54   53   57 1   
    55   54   55 1   
    56   54   58 1   
    57   54   59 1   
    58   55   56 2   
    59   55   60 1   
    60   60   61 1   
    61   60   68 1   
    62   61   62 1   
    63   61   64 1   
    64   61   69 1   
    65   62   63 2   
    66   62   72 1   
    67   64   65 1   
    68   64   70 1   
    69   64   71 1   
    70   65   66 1   
    71   65   67 1   
    72   72   73 1   
    73   72   76 1   
    74   73   74 1   
    75   73   77 1   
    76   73   78 1   
    77   74   75 2   
    78   74   79 1   
    79   79   80 1   
    80   79   86 1   
    81   80   81 1   
    82   80   83 1   
    83   80   87 1   
    84   81   82 2   
    85   81   93 1   
    86   83   84 1   
    87   83   85 1   
    88   83   88 1   
    89   84   90 1   
    90   84   91 1   
    91   84   92 1   
    92   85   89 1   
    93   93   94 1   
    94   93  101 1   
    95   94   95 1   
    96   94   97 1   
    97   94  102 1   
    98   95   96 2   
    99   95  112 1   
   100   97   98 1   
   101   97   99 1   
   102   97  103 1   
   103   98  100 1   
   104   98  104 1   
   105   98  105 1   
   106   99  106 1   
   107   99  107 1   
   108   99  108 1   
   109  100  109 1   
   110  100  110 1   
   111  100  111 1   
   112  112  113 1   
   113  112  119 1   
   114  113  114 1   
   115  113  116 1   
   116  113  120 1   
   117  114  115 2   
   118  114  126 1   
   119  116  117 1   
   120  116  118 1   
   121  116  121 1   
   122  117  123 1   
   123  117  124 1   
   124  117  125 1   
   125  118  122 1   
   126  126  127 1   
   127  126  133 1   
   128  127  128 1   
   129  127  130 1   
   130  127  134 1   
   131  128  129 2   
   132  128  140 1   
   133  130  131 1   
   134  130  132 1   
   135  130  135 1   
   136  131  137 1   
   137  131  138 1   
   138  131  139 1   
   139  132  136 1   
   140  140  141 1   
   141  140  149 1   
   142  141  142 1   
   143  141  144 1   
   144  141  150 1   
   145  142  143 2   
   146  142  162 1   
   147  144  145 1   
   148  144  151 1   
   149  144  152 1   
   150  145  146 1   
   151  145  153 1   
   152  145  154 1   
   153  146  147 1   
   154  146  155 1   
   155  146  156 1   
   156  147  148 1   
   157  147  157 1   
   158  147  158 1   
   159  148  159 1   
   160  148  160 1   
   161  148  161 1   
   162  162  163 1   
   163  162  171 1   
   164  163  164 1   
   165  163  166 1   
   166  163  172 1   
   167  164  165 2   
   168  164  177 1   
   169  166  167 1   
   170  166  173 1   
   171  166  174 1   
   172  167  168 1   
   173  167  175 1   
   174  167  176 1   
   175  168  169 1   
   176  168  170 1   
   177  177  178 1   
   178  177  182 1   
   179  178  179 1   
   180  178  180 1   
   181  178  181 1   
   182  184  185 1   
   183  184  186 1   
   184  187  188 1   
   185  187  189 1   
   186  190  191 1   
   187  190  192 1   
@<TRIPOS>SUBSTRUCTURE
     1 MOL         1 TEMP              0 ****  ****    0 ROOT
