@<TRIPOS>MOLECULE
MOL
  184   179     1     0     0
SMALL
resp


@<TRIPOS>ATOM
      1 C1         -3.1150   -1.4790   -4.2740 c3        1 MOL     -0.229277
      2 C2         -4.3630   -0.9940   -3.4830 c         1 MOL      0.747482
      3 O1         -4.2840    0.0210   -2.8230 o         1 MOL     -0.583594
      4 H1         -3.2780   -2.4990   -4.6200 hc        1 MOL      0.037121
      5 H2         -2.9520   -0.8270   -5.1320 hc        1 MOL      0.037121
      6 H3         -2.2400   -1.4510   -3.6240 hc        1 MOL      0.037121
      7 N1         -5.4550   -1.7660   -3.4810 n         1 MOL     -0.667729
      8 C3         -6.7340   -1.3050   -2.9010 c3        1 MOL      0.190991
      9 C4         -6.7100   -1.3170   -1.4050 c         1 MOL      0.499454
     10 O2         -6.3440   -2.2580   -0.7470 o         1 MOL     -0.476749
     11 C5         -7.8500   -2.1350   -3.5640 c3        1 MOL     -0.183312
     12 C6         -9.2700   -1.5510   -3.2300 c         1 MOL      0.700585
     13 O3         -9.3970   -0.3250   -3.0060 o         1 MOL     -0.720663
     14 O4        -10.2600   -2.3270   -3.2730 o         1 MOL     -0.720663
     15 H4         -5.4460   -2.6490   -3.9700 hn        1 MOL      0.324409
     16 H5         -6.8850   -0.2540   -3.1670 h1        1 MOL      0.022110
     17 H6         -7.7260   -3.1880   -3.3400 hc        1 MOL      0.019526
     18 H7         -7.8520   -2.1410   -4.6560 hc        1 MOL      0.019526
     19 N2         -7.0980   -0.1890   -0.7850 n         1 MOL     -0.427259
     20 C7         -7.3630    0.0380    0.6830 c3        1 MOL      0.133981
     21 C8         -6.0090    0.0890    1.4750 c         1 MOL      0.490892
     22 O5         -5.1690    0.8680    1.1170 o         1 MOL     -0.516499
     23 C9         -8.1740    1.3360    0.9070 c3        1 MOL     -0.459089
     24 H8         -7.4640    0.5910   -1.3260 hn        1 MOL      0.289755
     25 H9         -7.9120   -0.8350    1.0550 h1        1 MOL      0.076092
     26 H10        -7.8180    2.2210    0.3900 hc        1 MOL      0.127018
     27 H11        -9.1750    1.1240    0.5260 hc        1 MOL      0.127018
     28 H12        -8.1500    1.5680    1.9720 hc        1 MOL      0.127018
     29 N3         -5.9390   -0.6200    2.5410 n         1 MOL     -0.342844
     30 C10        -4.7160   -0.9080    3.2000 c3        1 MOL     -0.063381
     31 C11        -4.2100    0.1780    4.1760 c         1 MOL      0.435438
     32 O6         -3.0760    0.2010    4.6890 o         1 MOL     -0.509925
     33 C12        -4.6060   -2.3620    3.7470 c3        1 MOL     -0.204490
     34 C13        -4.8420   -3.3120    2.5820 c         1 MOL      0.619722
     35 O7         -3.9240   -3.3670    1.6790 o         1 MOL     -0.653524
     36 O8         -5.8850   -3.9940    2.5810 o         1 MOL     -0.653524
     37 H13        -6.7640   -1.0030    2.9760 hn        1 MOL      0.244662
     38 H14        -4.0160   -0.9990    2.3780 h1        1 MOL      0.107868
     39 H15        -5.3710   -2.5490    4.5030 hc        1 MOL      0.051660
     40 H16        -3.5950   -2.5720    4.0840 hc        1 MOL      0.051660
     41 N4         -5.0060    1.2170    4.3170 n         1 MOL     -0.167698
     42 C14        -4.8440    2.2650    5.3360 c3        1 MOL     -0.339562
     43 C15        -3.6800    3.2150    4.9720 c         1 MOL      0.536043
     44 O9         -3.0470    3.7260    5.9330 o         1 MOL     -0.563369
     45 H17        -5.9240    1.2850    3.9040 hn        1 MOL      0.227118
     46 H18        -4.5650    1.7350    6.2410 h1        1 MOL      0.141162
     47 H19        -5.7520    2.8550    5.4390 h1        1 MOL      0.141162
     48 N5         -3.1770    3.3860    3.7280 n         1 MOL     -0.292805
     49 C16        -2.1160    4.3110    3.4250 c3        1 MOL      0.080785
     50 C17        -2.2100    4.6570    1.9270 c         1 MOL      0.492405
     51 O10        -2.9250    3.9850    1.1890 o         1 MOL     -0.438544
     52 C18        -0.7620    3.6710    3.6980 c3        1 MOL     -0.234618
     53 C19         0.3450    4.6470    4.0560 c         1 MOL      0.685652
     54 N6          1.3840    4.2590    4.7260 n         1 MOL     -0.778993
     55 O11         0.3300    5.7870    3.6680 o         1 MOL     -0.543638
     56 H20        -3.7160    3.0110    2.9680 hn        1 MOL      0.212257
     57 H21        -2.1080    5.2600    3.9650 h1        1 MOL      0.032345
     58 H22        -0.4680    2.9910    2.8970 hc        1 MOL      0.107730
     59 H23        -0.9140    3.0420    4.5680 hc        1 MOL      0.107730
     60 H24         1.3480    3.3720    5.2170 hn        1 MOL      0.351925
     61 H25         2.1460    4.8790    4.9610 hn        1 MOL      0.351925
     62 N7         -1.4490    5.7160    1.4870 n         1 MOL     -0.549515
     63 C20        -1.1390    5.9040    0.1150 c3        1 MOL      0.186324
     64 C21         0.2640    5.8840   -0.3700 c         1 MOL      0.667847
     65 O12         1.0440    5.2000    0.2800 o         1 MOL     -0.536605
     66 H26        -0.7020    6.0560    2.0860 hn        1 MOL      0.277367
     67 H27        -1.5290    6.8950   -0.1410 h1        1 MOL     -0.002612
     68 H28        -1.6900    5.1880   -0.4800 h1        1 MOL     -0.002612
     69 N8          0.5550    6.5820   -1.4520 n         1 MOL     -0.534235
     70 C22         1.9600    6.8200   -1.9020 c3        1 MOL     -0.265854
     71 C23         2.7310    5.5700   -2.3590 c         1 MOL      0.418842
     72 O13         3.9580    5.6210   -2.5120 o         1 MOL     -0.538285
     73 C24         2.0220    7.9430   -2.9680 c3        1 MOL      0.495345
     74 C25         1.5150    7.5560   -4.3170 c3        1 MOL     -0.337271
     75 O14         1.3280    9.0690   -2.5380 oh        1 MOL     -0.635215
     76 H29        -0.1920    7.1040   -1.8820 hn        1 MOL      0.250040
     77 H30         2.4560    7.1630   -0.9930 h1        1 MOL      0.174068
     78 H31         3.0680    8.2200   -2.9750 h1        1 MOL      0.032464
     79 H32         0.4140    8.8010   -2.4000 ho        1 MOL      0.391979
     80 H33         2.1240    6.7610   -4.7650 hc        1 MOL      0.077228
     81 H34         0.5280    7.1170   -4.2410 hc        1 MOL      0.077228
     82 H35         1.3920    8.4250   -4.9730 hc        1 MOL      0.077228
     83 N9          2.0530    4.3980   -2.5430 n         1 MOL     -0.088221
     84 C26         2.4170    3.0490   -3.0950 c3        1 MOL     -0.086871
     85 C27         1.6950    2.0660   -2.1890 c         1 MOL      0.521007
     86 O15         0.6200    2.3390   -1.6990 o         1 MOL     -0.442333
     87 C28         1.9330    2.8410   -4.5950 c3        1 MOL      0.315126
     88 C29         0.4340    2.7770   -4.8530 c3        1 MOL      0.145472
     89 C30         2.6340    3.7770   -5.6130 c3        1 MOL     -0.578014
     90 C31        -0.3510    4.0540   -5.0210 c3        1 MOL     -0.262584
     91 H36         1.1090    4.4370   -2.1970 hn        1 MOL      0.116525
     92 H37         3.4990    2.9280   -3.0380 h1        1 MOL      0.070685
     93 H38         2.2730    1.8280   -4.8280 hc        1 MOL     -0.056643
     94 H39        -0.0980    2.0820   -4.2030 hc        1 MOL     -0.005395
     95 H40         0.3850    2.2110   -5.7840 hc        1 MOL     -0.005395
     96 H41         3.6930    3.7080   -5.3800 hc        1 MOL      0.135356
     97 H42         2.4710    3.4830   -6.6490 hc        1 MOL      0.135356
     98 H43         2.2830    4.8000   -5.4620 hc        1 MOL      0.135356
     99 H44        -0.0620    4.5830   -5.9300 hc        1 MOL      0.057761
    100 H45        -1.4360    3.9890   -4.9050 hc        1 MOL      0.057761
    101 H46         0.1120    4.6940   -4.2640 hc        1 MOL      0.057761
    102 N10         2.2670    0.8790   -2.0450 n         1 MOL     -0.719972
    103 C32         1.8080   -0.1870   -1.0680 c3        1 MOL      0.294436
    104 C33         2.9130   -0.7570   -0.1660 c         1 MOL      0.334925
    105 O16         3.1140   -1.9590    0.0390 o         1 MOL     -0.407123
    106 C34         1.0300   -1.1290   -1.9040 c3        1 MOL     -0.107636
    107 C35         0.2720   -2.1260   -1.0130 c         1 MOL      0.672580
    108 O17        -0.2420   -3.1360   -1.5770 o         1 MOL     -0.698136
    109 O18        -0.0010   -1.8120    0.1930 o         1 MOL     -0.698136
    110 H47         3.0930    0.4930   -2.4900 hn        1 MOL      0.346449
    111 H48         1.0760    0.2410   -0.3810 h1        1 MOL      0.056994
    112 H49         1.6690   -1.7560   -2.5250 hc        1 MOL      0.035749
    113 H50         0.4060   -0.5850   -2.6230 hc        1 MOL      0.035749
    114 N11         3.7140    0.0840    0.4170 n         1 MOL     -0.330080
    115 C36         4.8570   -0.1380    1.2610 c3        1 MOL      0.135323
    116 C37         5.8060   -1.1530    0.5820 c         1 MOL      0.278915
    117 O19         6.2810   -1.0320   -0.5370 o         1 MOL     -0.502468
    118 C38         5.5580    1.1660    1.4340 c3        1 MOL     -0.466621
    119 C39         6.9290    1.0640    2.2610 ca        1 MOL      0.199065
    120 C40         6.9190    1.4320    3.5800 ca        1 MOL     -0.201863
    121 C41         8.2170    0.7310    1.6540 ca        1 MOL     -0.201863
    122 C42         8.1180    1.5720    4.2760 ca        1 MOL     -0.099722
    123 C43         9.4260    0.9050    2.3390 ca        1 MOL     -0.099722
    124 C44         9.3720    1.2750    3.7050 ca        1 MOL     -0.108126
    125 H51         3.3960    1.0320    0.2480 hn        1 MOL      0.262198
    126 H52         4.5370   -0.4490    2.2600 h1        1 MOL      0.069128
    127 H53         4.8130    1.8190    1.8880 hc        1 MOL      0.169686
    128 H54         5.8670    1.6600    0.5120 hc        1 MOL      0.169686
    129 H55         5.9410    1.7280    3.9300 ha        1 MOL      0.130351
    130 H56         8.1400    0.4550    0.6140 ha        1 MOL      0.130351
    131 H57         8.0710    1.8970    5.3050 ha        1 MOL      0.108944
    132 H58        10.3590    0.7290    1.8370 ha        1 MOL      0.108944
    133 H59        10.1870    1.4910    4.3790 ha        1 MOL      0.092095
    134 N12         6.2110   -2.2860    1.1970 n         1 MOL      0.101169
    135 C45         7.1540   -3.2630    0.5730 c3        1 MOL      0.146975
    136 C46         6.4760   -4.0230   -0.5830 c         1 MOL      0.300474
    137 O20         7.1650   -4.5400   -1.4550 o         1 MOL     -0.531626
    138 C47         7.5630   -4.1440    1.7990 c3        1 MOL     -0.282415
    139 C48         6.3750   -4.1950    2.7260 c3        1 MOL      0.150962
    140 C49         5.9140   -2.7240    2.5680 c3        1 MOL     -0.277442
    141 H60         8.0620   -2.7390    0.2650 h1        1 MOL      0.051298
    142 H61         7.7640   -5.1610    1.4630 hc        1 MOL      0.077564
    143 H62         8.4330   -3.7140    2.2750 hc        1 MOL      0.077564
    144 H63         5.6150   -4.8670    2.3260 hc        1 MOL      0.006886
    145 H64         6.5820   -4.4540    3.7690 hc        1 MOL      0.006886
    146 H65         4.8370   -2.8500    2.7390 h1        1 MOL      0.082603
    147 H66         6.5050   -2.1960    3.3120 h1        1 MOL      0.082603
    148 N13         5.1230   -4.0300   -0.6330 n         1 MOL      0.028745
    149 C50         4.3020   -4.8240   -1.6120 c3        1 MOL     -0.286369
    150 C51         4.4130   -4.2490   -3.0820 c         1 MOL      0.481630
    151 O21         4.2980   -4.9870   -4.0880 o         1 MOL     -0.550030
    152 C52         2.8580   -4.8820   -1.1280 c3        1 MOL      0.035885
    153 C53         2.7360   -5.6060    0.1760 c3        1 MOL     -0.214210
    154 C54         1.3210   -5.5820    0.6120 c         1 MOL      0.800436
    155 O22         0.8840   -6.6190    1.1450 o         1 MOL     -0.748482
    156 O23         0.7200   -4.5040    0.9240 o         1 MOL     -0.748482
    157 H67         4.6270   -3.7270    0.1920 hn        1 MOL      0.140661
    158 H68         4.6650   -5.8510   -1.6900 h1        1 MOL      0.135508
    159 H69         2.2060   -5.3550   -1.8590 hc        1 MOL      0.019317
    160 H70         2.4960   -3.8600   -1.0670 hc        1 MOL      0.019317
    161 H71         3.3650   -5.1500    0.9430 hc        1 MOL      0.041268
    162 H72         3.0880   -6.6360    0.2090 hc        1 MOL      0.041268
    163 N14         4.8380   -2.9730   -3.2050 n         1 MOL     -0.117246
    164 C55         4.8810   -2.2890   -4.5340 c3        1 MOL     -0.242084
    165 H73         5.0600   -3.0280   -5.3170 h1        1 MOL      0.097065
    166 H74         3.9290   -1.7900   -4.7170 h1        1 MOL      0.097065
    167 H75         5.6840   -1.5540   -4.5390 h1        1 MOL      0.097065
    168 H76         5.0810   -2.5200   -2.3450 hn        1 MOL      0.149054
    169 Ca1        -1.7930   -3.8480    0.3300 Ca        1 MOL      1.757458
    170 O24        -3.1340   -1.5740   -0.6970 oh        1 MOL     -0.847756
    171 H77        -2.7550   -0.7000   -0.8420 ho        1 MOL      0.405915
    172 H78        -4.0630   -1.4120   -0.5590 ho        1 MOL      0.405915
    173 O25        -1.2730   -5.9030   -1.4350 oh        1 MOL     -0.847756
    174 H79        -1.1470   -6.8180   -1.1930 ho        1 MOL      0.405915
    175 H80        -0.7090   -5.7730   -2.1990 ho        1 MOL      0.405915
    176 O26        -0.9190   -2.8830    2.6820 oh        1 MOL     -0.847756
    177 H81        -0.2080   -2.3080    2.4100 ho        1 MOL      0.405915
    178 H82        -0.7330   -3.0660    3.6050 ho        1 MOL      0.405915
    179 O27        -1.7390   -6.0610    1.8060 oh        1 MOL     -0.847756
    180 H83        -1.9850   -5.9160    2.7190 ho        1 MOL      0.405915
    181 H84        -0.8040   -6.2890    1.8450 ho        1 MOL      0.405915
    182 O28        -4.1780   -4.1750   -0.9210 oh        1 MOL     -0.847756
    183 H85        -4.1690   -4.2810   -1.8730 ho        1 MOL      0.405915
    184 H86        -4.9740   -3.6760   -0.7400 ho        1 MOL      0.405915
@<TRIPOS>BOND
     1    1    2 1   
     2    1    4 1   
     3    1    5 1   
     4    1    6 1   
     5    2    3 2   
     6    2    7 1   
     7    7    8 1   
     8    7   15 1   
     9    8    9 1   
    10    8   11 1   
    11    8   16 1   
    12    9   10 2   
    13    9   19 1   
    14   11   12 1   
    15   11   17 1   
    16   11   18 1   
    17   12   13 1   
    18   12   14 1   
    19   19   20 1   
    20   19   24 1   
    21   20   21 1   
    22   20   23 1   
    23   20   25 1   
    24   21   22 2   
    25   21   29 1   
    26   23   26 1   
    27   23   27 1   
    28   23   28 1   
    29   29   30 1   
    30   29   37 1   
    31   30   31 1   
    32   30   33 1   
    33   30   38 1   
    34   31   32 2   
    35   31   41 1   
    36   33   34 1   
    37   33   39 1   
    38   33   40 1   
    39   34   35 1   
    40   34   36 1   
    41   41   42 1   
    42   41   45 1   
    43   42   43 1   
    44   42   46 1   
    45   42   47 1   
    46   43   44 2   
    47   43   48 1   
    48   48   49 1   
    49   48   56 1   
    50   49   50 1   
    51   49   52 1   
    52   49   57 1   
    53   50   51 2   
    54   50   62 1   
    55   52   53 1   
    56   52   58 1   
    57   52   59 1   
    58   53   54 1   
    59   53   55 2   
    60   54   60 1   
    61   54   61 1   
    62   62   63 1   
    63   62   66 1   
    64   63   64 1   
    65   63   67 1   
    66   63   68 1   
    67   64   65 2   
    68   64   69 1   
    69   69   70 1   
    70   69   76 1   
    71   70   71 1   
    72   70   73 1   
    73   70   77 1   
    74   71   72 2   
    75   71   83 1   
    76   73   74 1   
    77   73   75 1   
    78   73   78 1   
    79   74   80 1   
    80   74   81 1   
    81   74   82 1   
    82   75   79 1   
    83   83   84 1   
    84   83   91 1   
    85   84   85 1   
    86   84   87 1   
    87   84   92 1   
    88   85   86 2   
    89   85  102 1   
    90   87   88 1   
    91   87   89 1   
    92   87   93 1   
    93   88   90 1   
    94   88   94 1   
    95   88   95 1   
    96   89   96 1   
    97   89   97 1   
    98   89   98 1   
    99   90   99 1   
   100   90  100 1   
   101   90  101 1   
   102  102  103 1   
   103  102  110 1   
   104  103  104 1   
   105  103  106 1   
   106  103  111 1   
   107  104  105 2   
   108  104  114 1   
   109  106  107 1   
   110  106  112 1   
   111  106  113 1   
   112  107  108 1   
   113  107  109 1   
   114  114  115 1   
   115  114  125 1   
   116  115  116 1   
   117  115  118 1   
   118  115  126 1   
   119  116  117 2   
   120  116  134 1   
   121  118  119 1   
   122  118  127 1   
   123  118  128 1   
   124  119  120 ar  
   125  119  121 ar  
   126  120  122 ar  
   127  120  129 1   
   128  121  123 ar  
   129  121  130 1   
   130  122  124 ar  
   131  122  131 1   
   132  123  124 ar  
   133  123  132 1   
   134  124  133 1   
   135  134  135 1   
   136  134  140 1   
   137  135  136 1   
   138  135  138 1   
   139  135  141 1   
   140  136  137 2   
   141  136  148 1   
   142  138  139 1   
   143  138  142 1   
   144  138  143 1   
   145  139  140 1   
   146  139  144 1   
   147  139  145 1   
   148  140  146 1   
   149  140  147 1   
   150  148  149 1   
   151  148  157 1   
   152  149  150 1   
   153  149  152 1   
   154  149  158 1   
   155  150  151 2   
   156  150  163 1   
   157  152  153 1   
   158  152  159 1   
   159  152  160 1   
   160  153  154 1   
   161  153  161 1   
   162  153  162 1   
   163  154  155 1   
   164  154  156 1   
   165  163  164 1   
   166  163  168 1   
   167  164  165 1   
   168  164  166 1   
   169  164  167 1   
   170  170  171 1   
   171  170  172 1   
   172  173  174 1   
   173  173  175 1   
   174  176  177 1   
   175  176  178 1   
   176  179  180 1   
   177  179  181 1   
   178  182  183 1   
   179  182  184 1   
@<TRIPOS>SUBSTRUCTURE
     1 MOL         1 TEMP              0 ****  ****    0 ROOT
