@<TRIPOS>MOLECULE
MOL
  192   187     1     0     0
SMALL
resp


@<TRIPOS>ATOM
      1 C1         11.3860    5.9610   -3.3520 c3        1 MOL     -0.392400
      2 C2         11.2940    4.5900   -2.6920 c         1 MOL      0.714812
      3 O1         12.3130    3.9620   -2.6680 o         1 MOL     -0.535951
      4 H1         11.6460    6.7070   -2.6010 hc        1 MOL      0.099448
      5 H2         12.1530    5.9420   -4.1260 hc        1 MOL      0.099448
      6 H3         10.4250    6.2160   -3.7980 hc        1 MOL      0.099448
      7 N1         10.2170    4.2440   -1.9940 n         1 MOL     -0.316987
      8 C3         10.1940    2.9150   -1.2790 c3        1 MOL     -0.537388
      9 C4          8.7920    2.2220   -1.2460 c         1 MOL      0.801828
     10 O2          7.8230    2.9700   -1.0120 o         1 MOL     -0.698317
     11 C5         10.8010    3.1100    0.1430 c3        1 MOL      0.236516
     12 C6         10.5370    4.4700    0.8090 c         1 MOL      0.720518
     13 O3          9.3710    4.9030    0.9570 o         1 MOL     -0.726549
     14 O4         11.5300    5.1370    1.1080 o         1 MOL     -0.726549
     15 H4          9.4880    4.8730   -1.7000 hn        1 MOL      0.176403
     16 H5         10.8590    2.2600   -1.8560 h1        1 MOL      0.141756
     17 H6         11.8790    2.9810    0.0150 hc        1 MOL     -0.012447
     18 H7         10.4830    2.3340    0.8420 hc        1 MOL     -0.012447
     19 N2          8.6210    0.9230   -1.5340 n         1 MOL     -0.474027
     20 C7          7.2780    0.2730   -1.5050 c3        1 MOL     -0.106232
     21 C8          6.6910   -0.0830   -0.1650 c         1 MOL      0.784386
     22 O5          7.2880   -0.7590    0.6370 o         1 MOL     -0.558251
     23 C9          7.2480   -0.9270   -2.4920 c3        1 MOL     -0.213787
     24 C10         8.2950   -1.9730   -2.2410 c3        1 MOL      0.006800
     25 C11         8.3290   -3.1790   -3.2730 c3        1 MOL     -0.089976
     26 C12         7.2850   -4.2350   -3.0810 c3        1 MOL      0.135379
     27 N3          7.4240   -4.9540   -1.8360 n4        1 MOL     -0.525838
     28 H8          9.4750    0.3980   -1.6720 hn        1 MOL      0.313794
     29 H9          6.6260    1.0920   -1.8210 h1        1 MOL      0.088842
     30 H10         7.4270   -0.5510   -3.5070 hc        1 MOL      0.095008
     31 H11         6.2840   -1.4140   -2.3880 hc        1 MOL      0.095008
     32 H12         8.1740   -2.3510   -1.2230 hc        1 MOL      0.032879
     33 H13         9.2780   -1.5220   -2.2540 hc        1 MOL      0.032879
     34 H14         9.3520   -3.5510   -3.1600 hc        1 MOL      0.062670
     35 H15         8.3050   -2.7680   -4.2800 hc        1 MOL      0.062670
     36 H16         7.4580   -4.9490   -3.8830 hx        1 MOL      0.044547
     37 H17         6.3040   -3.7600   -3.1720 hx        1 MOL      0.044547
     38 H18         7.0020   -4.3740   -1.1360 hn        1 MOL      0.391050
     39 H19         6.8140   -5.7250   -2.0710 hn        1 MOL      0.391050
     40 H20         8.3750   -5.1680   -1.5830 hn        1 MOL      0.391050
     41 N4          5.3740    0.1220   -0.0360 n         1 MOL     -0.713462
     42 C13         4.6880   -0.1830    1.2300 c3        1 MOL      0.162337
     43 C14         3.1670   -0.3390    1.0070 c         1 MOL      0.556112
     44 O6          2.6230    0.1900    0.0200 o         1 MOL     -0.516898
     45 C15         5.0850    0.8640    2.2180 c3        1 MOL     -0.443541
     46 C16         5.5940    2.1920    1.6070 c         1 MOL      0.828076
     47 O7          6.7830    2.5040    1.8710 o         1 MOL     -0.713577
     48 O8          4.8690    2.8100    0.8010 o         1 MOL     -0.713577
     49 H21         4.9200    0.5390   -0.8380 hn        1 MOL      0.317045
     50 H22         5.0760   -1.1310    1.5830 h1        1 MOL      0.143888
     51 H23         5.8650    0.4610    2.8710 hc        1 MOL      0.130549
     52 H24         4.2330    1.1120    2.8530 hc        1 MOL      0.130549
     53 N5          2.4270   -0.9470    1.9660 n         1 MOL     -0.490223
     54 C17         2.9980   -1.8360    3.0280 c3        1 MOL      0.005561
     55 C18         3.6190   -3.1220    2.5760 c         1 MOL      0.539175
     56 O9          4.1430   -3.2240    1.4630 o         1 MOL     -0.606268
     57 H25         1.4550   -1.0880    1.7720 hn        1 MOL      0.335739
     58 H26         2.2250   -2.1610    3.7100 h1        1 MOL      0.050548
     59 H27         3.7710   -1.3160    3.5900 h1        1 MOL      0.050548
     60 N6          3.5670   -4.1130    3.4360 n         1 MOL     -0.251502
     61 C19         4.1070   -5.4960    3.1960 c3        1 MOL     -0.037158
     62 C20         3.4300   -6.2040    1.9580 c         1 MOL      0.418696
     63 O10         4.0190   -6.9560    1.1880 o         1 MOL     -0.529078
     64 C21         4.1120   -6.4020    4.4250 c3        1 MOL     -0.085651
     65 C22         4.6450   -5.7360    5.6510 c         1 MOL      0.759162
     66 O11         5.8250   -5.6390    5.6570 o         1 MOL     -0.715363
     67 O12         3.9010   -5.4100    6.5930 o         1 MOL     -0.715363
     68 H28         3.2630   -3.9750    4.3860 hn        1 MOL      0.185567
     69 H29         5.1640   -5.3790    2.9490 h1        1 MOL      0.062968
     70 H30         4.7550   -7.2390    4.1670 hc        1 MOL      0.003358
     71 H31         3.0650   -6.6860    4.5490 hc        1 MOL      0.003358
     72 N7          2.0850   -6.0370    1.9130 n         1 MOL     -0.171823
     73 C23         1.2960   -6.6430    0.7850 c3        1 MOL     -0.326992
     74 C24         1.1150   -5.6170   -0.4340 c         1 MOL      0.573186
     75 O13         0.7480   -6.1470   -1.5210 o         1 MOL     -0.553916
     76 H32         1.5750   -5.5030    2.6050 hn        1 MOL      0.227962
     77 H33         0.3290   -6.9960    1.1230 h1        1 MOL      0.162661
     78 H34         1.8450   -7.4610    0.3040 h1        1 MOL      0.162661
     79 N8          1.1300   -4.2900   -0.1760 n         1 MOL     -0.411929
     80 C25         0.8830   -3.2770   -1.2000 c3        1 MOL      0.008858
     81 C26         0.0010   -2.1300   -0.7020 c         1 MOL      0.455266
     82 O14        -0.0440   -1.8890    0.5130 o         1 MOL     -0.463545
     83 C27         2.2060   -2.6220   -1.5540 c3        1 MOL      0.624522
     84 C28         3.3460   -3.5750   -1.9660 c3        1 MOL     -0.313082
     85 O15         2.1000   -1.7970   -2.7040 oh        1 MOL     -0.709969
     86 H35         1.4640   -3.9840    0.7290 hn        1 MOL      0.185505
     87 H36         0.5680   -3.7030   -2.1510 h1        1 MOL      0.081449
     88 H37         2.4540   -2.0240   -0.6730 h1        1 MOL     -0.120126
     89 H38         2.8590   -1.2140   -2.7790 ho        1 MOL      0.380954
     90 H39         4.1630   -2.9820   -2.3730 hc        1 MOL      0.064316
     91 H40         3.6310   -4.2240   -1.1360 hc        1 MOL      0.064316
     92 H41         3.0540   -4.2020   -2.8050 hc        1 MOL      0.064316
     93 N9         -0.5420   -1.3260   -1.5890 n         1 MOL     -0.439484
     94 C29        -1.3160   -0.1610   -1.3100 c3        1 MOL     -0.104387
     95 C30        -2.6730   -0.5260   -0.6670 c         1 MOL      0.596713
     96 O16        -2.9370   -0.0910    0.4400 o         1 MOL     -0.533042
     97 C31        -1.5790    0.7000   -2.5230 c3        1 MOL      0.186264
     98 C32        -0.2350    0.8760   -3.3520 c3        1 MOL      0.071636
     99 C33        -2.1470    2.1520   -2.2010 c3        1 MOL     -0.369705
    100 C34        -0.1980    1.9560   -4.4640 c3        1 MOL     -0.168492
    101 H42        -0.4200   -1.4920   -2.5810 hn        1 MOL      0.263857
    102 H43        -0.7320    0.3850   -0.5760 h1        1 MOL      0.109674
    103 H44        -2.3210    0.2420   -3.1720 hc        1 MOL     -0.010735
    104 H45        -0.0690   -0.0150   -3.9530 hc        1 MOL      0.020997
    105 H46         0.6000    1.0090   -2.6640 hc        1 MOL      0.020997
    106 H47        -1.3550    2.6180   -1.6280 hc        1 MOL      0.098667
    107 H48        -2.3690    2.6820   -3.1250 hc        1 MOL      0.098667
    108 H49        -3.0210    2.0580   -1.5560 hc        1 MOL      0.098667
    109 H50         0.5500    1.6610   -5.1970 hc        1 MOL      0.037513
    110 H51        -1.1190    1.9430   -5.0570 hc        1 MOL      0.037513
    111 H52         0.1030    2.9530   -4.1500 hc        1 MOL      0.037513
    112 N10        -3.4390   -1.4740   -1.2350 n         1 MOL     -0.564828
    113 C35        -4.7230   -2.0450   -0.6540 c3        1 MOL      0.082488
    114 C36        -5.8330   -2.0860   -1.6570 c         1 MOL      0.630044
    115 O17        -5.4930   -2.5920   -2.7530 o         1 MOL     -0.565302
    116 C37        -4.5600   -3.3930    0.1400 c3        1 MOL      0.490482
    117 C38        -5.8140   -3.6410    0.9190 c3        1 MOL     -0.322936
    118 O18        -4.2790   -4.4010   -0.7880 oh        1 MOL     -0.621886
    119 H53        -3.1680   -1.7390   -2.1710 hn        1 MOL      0.282107
    120 H54        -5.0740   -1.3150    0.0740 h1        1 MOL      0.022178
    121 H55        -3.7240   -3.3430    0.8380 h1        1 MOL     -0.012447
    122 H56        -3.3520   -4.2690   -1.0160 ho        1 MOL      0.366774
    123 H57        -5.6500   -4.5060    1.5720 hc        1 MOL      0.074052
    124 H58        -5.8080   -2.7680    1.5640 hc        1 MOL      0.074052
    125 H59        -6.7190   -3.7820    0.3380 hc        1 MOL      0.074052
    126 N11        -7.0280   -1.5540   -1.3960 n         1 MOL     -0.516716
    127 C39        -8.0840   -1.4540   -2.3850 c3        1 MOL     -0.045053
    128 C40        -9.0090   -0.2570   -2.1240 c         1 MOL      0.633736
    129 O19        -9.2760    0.4600   -3.0920 o         1 MOL     -0.569992
    130 C41        -8.7860   -2.7970   -2.2110 c3        1 MOL      0.242731
    131 C42       -10.0970   -2.8230   -2.9320 c3        1 MOL     -0.282577
    132 O20        -9.1480   -3.1020   -0.8120 oh        1 MOL     -0.660648
    133 H60        -7.1820   -1.1420   -0.4870 hn        1 MOL      0.286243
    134 H61        -7.7450   -1.2930   -3.4130 h1        1 MOL      0.127944
    135 H62        -8.1320   -3.6160   -2.5180 h1        1 MOL      0.099544
    136 H63        -9.8390   -3.7800   -0.7790 ho        1 MOL      0.415732
    137 H64       -10.0860   -2.3450   -3.9170 hc        1 MOL      0.064729
    138 H65       -10.4150   -3.8520   -3.1350 hc        1 MOL      0.064729
    139 H66       -10.8770   -2.3480   -2.3400 hc        1 MOL      0.064729
    140 N12        -9.4980    0.0380   -0.9120 n         1 MOL     -0.412956
    141 C43       -10.3800    1.1590   -0.6100 c3        1 MOL      0.106219
    142 C44        -9.8570    1.9040    0.6170 c         1 MOL      0.507557
    143 O21        -9.2050    1.2750    1.4230 o         1 MOL     -0.494576
    144 C45       -11.8010    0.6880   -0.7440 c3        1 MOL     -0.246697
    145 C46       -12.3400   -0.6350   -0.0300 c3        1 MOL      0.087605
    146 C47       -13.7780   -0.9880   -0.4800 c3        1 MOL     -0.001659
    147 C48       -14.1540   -2.4000   -0.0650 c3        1 MOL      0.047997
    148 N13       -15.3860   -2.8870   -0.6890 n4        1 MOL     -0.110005
    149 H67        -9.2720   -0.5680   -0.1300 hn        1 MOL      0.273254
    150 H68       -10.2110    1.8850   -1.4120 h1        1 MOL      0.083912
    151 H69       -12.0100    0.6320   -1.8070 hc        1 MOL      0.083275
    152 H70       -12.4680    1.5050   -0.4550 hc        1 MOL      0.083275
    153 H71       -12.3090   -0.5630    1.0540 hc        1 MOL      0.018017
    154 H72       -11.6730   -1.4380   -0.3160 hc        1 MOL      0.018017
    155 H73       -13.8400   -0.9200   -1.5660 hc        1 MOL      0.016322
    156 H74       -14.4130   -0.1880   -0.0950 hc        1 MOL      0.016322
    157 H75       -14.1010   -2.5110    1.0230 hx        1 MOL      0.047273
    158 H76       -13.4230   -3.1070   -0.4610 hx        1 MOL      0.047273
    159 H77       -16.0510   -2.1450   -0.5180 hn        1 MOL      0.186623
    160 H78       -15.3700   -3.0170   -1.6930 hn        1 MOL      0.186623
    161 H79       -15.8390   -3.7470   -0.3850 hn        1 MOL      0.186623
    162 N14       -10.0630    3.2470    0.7550 n         1 MOL     -0.555911
    163 C49        -9.6270    4.0350    1.9070 c3        1 MOL      0.281066
    164 C50        -8.1080    4.1180    2.1300 c         1 MOL      0.245653
    165 O22        -7.7230    4.0270    3.3250 o         1 MOL     -0.520319
    166 C51       -10.1000    5.4410    1.6340 c3        1 MOL     -0.024545
    167 C52        -9.8120    6.4860    2.7730 c3        1 MOL     -0.263803
    168 C53       -10.4200    7.8960    2.4700 c         1 MOL      0.672795
    169 O23       -11.5840    8.2750    2.7300 o         1 MOL     -0.613683
    170 O24        -9.6870    8.7080    1.8260 o         1 MOL     -0.613683
    171 H80       -10.5910    3.6170   -0.0200 hn        1 MOL      0.262744
    172 H81       -10.1250    3.8550    2.8580 h1        1 MOL      0.063580
    173 H82       -11.1780    5.2960    1.5670 hc        1 MOL      0.032760
    174 H83        -9.7000    5.8640    0.7190 hc        1 MOL      0.032760
    175 H84        -8.7400    6.6120    2.9190 hc        1 MOL      0.073518
    176 H85       -10.2200    6.0740    3.7030 hc        1 MOL      0.073518
    177 N15        -7.1470    4.1720    1.2060 n         1 MOL     -0.184480
    178 C54        -7.2500    4.4080   -0.2190 c3        1 MOL     -0.099180
    179 H86        -7.1750    3.4590   -0.7500 h1        1 MOL      0.064078
    180 H87        -8.2100    4.8740   -0.4420 h1        1 MOL      0.064078
    181 H88        -6.4430    5.0670   -0.5380 h1        1 MOL      0.064078
    182 H89        -6.2230    4.2450    1.6050 hn        1 MOL      0.264108
    183 Ca1         6.6120    4.8040    0.4880 Ca        1 MOL      1.705071
    184 O25         4.7040    5.6940    1.9530 oh        1 MOL     -0.822882
    185 H90         4.3930    6.4660    1.5030 ho        1 MOL      0.409266
    186 H91         3.9270    5.3170    2.3620 ho        1 MOL      0.409266
    187 O26         7.5310    5.1860    3.4520 oh        1 MOL     -0.822882
    188 H92         8.4660    4.9970    3.5700 ho        1 MOL      0.409266
    189 H93         7.4460    6.1080    3.6890 ho        1 MOL      0.409266
    190 O27         4.9400    4.6780   -1.7290 oh        1 MOL     -0.822882
    191 H94         5.4230    4.7710   -2.5520 ho        1 MOL      0.409266
    192 H95         4.3670    3.9300   -1.8820 ho        1 MOL      0.409266
@<TRIPOS>BOND
     1    1    2 1   
     2    1    4 1   
     3    1    5 1   
     4    1    6 1   
     5    2    3 2   
     6    2    7 1   
     7    7    8 1   
     8    7   15 1   
     9    8    9 1   
    10    8   11 1   
    11    8   16 1   
    12    9   10 2   
    13    9   19 1   
    14   11   12 1   
    15   11   17 1   
    16   11   18 1   
    17   12   13 1   
    18   12   14 1   
    19   19   20 1   
    20   19   28 1   
    21   20   21 1   
    22   20   23 1   
    23   20   29 1   
    24   21   22 2   
    25   21   41 1   
    26   23   24 1   
    27   23   30 1   
    28   23   31 1   
    29   24   25 1   
    30   24   32 1   
    31   24   33 1   
    32   25   26 1   
    33   25   34 1   
    34   25   35 1   
    35   26   27 1   
    36   26   36 1   
    37   26   37 1   
    38   27   38 1   
    39   27   39 1   
    40   27   40 1   
    41   41   42 1   
    42   41   49 1   
    43   42   43 1   
    44   42   45 1   
    45   42   50 1   
    46   43   44 2   
    47   43   53 1   
    48   45   46 1   
    49   45   51 1   
    50   45   52 1   
    51   46   47 1   
    52   46   48 1   
    53   53   54 1   
    54   53   57 1   
    55   54   55 1   
    56   54   58 1   
    57   54   59 1   
    58   55   56 2   
    59   55   60 1   
    60   60   61 1   
    61   60   68 1   
    62   61   62 1   
    63   61   64 1   
    64   61   69 1   
    65   62   63 2   
    66   62   72 1   
    67   64   65 1   
    68   64   70 1   
    69   64   71 1   
    70   65   66 1   
    71   65   67 1   
    72   72   73 1   
    73   72   76 1   
    74   73   74 1   
    75   73   77 1   
    76   73   78 1   
    77   74   75 2   
    78   74   79 1   
    79   79   80 1   
    80   79   86 1   
    81   80   81 1   
    82   80   83 1   
    83   80   87 1   
    84   81   82 2   
    85   81   93 1   
    86   83   84 1   
    87   83   85 1   
    88   83   88 1   
    89   84   90 1   
    90   84   91 1   
    91   84   92 1   
    92   85   89 1   
    93   93   94 1   
    94   93  101 1   
    95   94   95 1   
    96   94   97 1   
    97   94  102 1   
    98   95   96 2   
    99   95  112 1   
   100   97   98 1   
   101   97   99 1   
   102   97  103 1   
   103   98  100 1   
   104   98  104 1   
   105   98  105 1   
   106   99  106 1   
   107   99  107 1   
   108   99  108 1   
   109  100  109 1   
   110  100  110 1   
   111  100  111 1   
   112  112  113 1   
   113  112  119 1   
   114  113  114 1   
   115  113  116 1   
   116  113  120 1   
   117  114  115 2   
   118  114  126 1   
   119  116  117 1   
   120  116  118 1   
   121  116  121 1   
   122  117  123 1   
   123  117  124 1   
   124  117  125 1   
   125  118  122 1   
   126  126  127 1   
   127  126  133 1   
   128  127  128 1   
   129  127  130 1   
   130  127  134 1   
   131  128  129 2   
   132  128  140 1   
   133  130  131 1   
   134  130  132 1   
   135  130  135 1   
   136  131  137 1   
   137  131  138 1   
   138  131  139 1   
   139  132  136 1   
   140  140  141 1   
   141  140  149 1   
   142  141  142 1   
   143  141  144 1   
   144  141  150 1   
   145  142  143 2   
   146  142  162 1   
   147  144  145 1   
   148  144  151 1   
   149  144  152 1   
   150  145  146 1   
   151  145  153 1   
   152  145  154 1   
   153  146  147 1   
   154  146  155 1   
   155  146  156 1   
   156  147  148 1   
   157  147  157 1   
   158  147  158 1   
   159  148  159 1   
   160  148  160 1   
   161  148  161 1   
   162  162  163 1   
   163  162  171 1   
   164  163  164 1   
   165  163  166 1   
   166  163  172 1   
   167  164  165 2   
   168  164  177 1   
   169  166  167 1   
   170  166  173 1   
   171  166  174 1   
   172  167  168 1   
   173  167  175 1   
   174  167  176 1   
   175  168  169 1   
   176  168  170 1   
   177  177  178 1   
   178  177  182 1   
   179  178  179 1   
   180  178  180 1   
   181  178  181 1   
   182  184  185 1   
   183  184  186 1   
   184  187  188 1   
   185  187  189 1   
   186  190  191 1   
   187  190  192 1   
@<TRIPOS>SUBSTRUCTURE
     1 MOL         1 TEMP              0 ****  ****    0 ROOT
