@<TRIPOS>MOLECULE
MOL
  181   177     1     0     0
SMALL
resp


@<TRIPOS>ATOM
      1 C1          0.5470    6.6530   -1.9900 c3        1 MOL     -0.463240
      2 C2          1.8840    6.2920   -1.2990 c         1 MOL      0.722088
      3 O1          2.2350    6.7660   -0.2050 o         1 MOL     -0.587673
      4 H1         -0.2690    6.5590   -1.2740 hc        1 MOL      0.117008
      5 H2          0.5910    7.6780   -2.3560 hc        1 MOL      0.117008
      6 H3          0.3750    5.9750   -2.8260 hc        1 MOL      0.117008
      7 N1          2.7230    5.5160   -2.0300 n         1 MOL     -0.615748
      8 C3          4.0550    5.0940   -1.6590 c3        1 MOL      0.246168
      9 C4          4.0680    4.0900   -0.5070 c         1 MOL      0.840649
     10 O2          3.2400    3.1750   -0.4510 o         1 MOL     -0.692033
     11 C5          4.7720    4.3500   -2.8780 c3        1 MOL     -0.303549
     12 C6          6.2400    4.0140   -2.7240 c         1 MOL      0.858959
     13 O3          6.6140    2.8990   -2.7720 o         1 MOL     -0.776917
     14 O4          6.9640    4.9170   -2.3660 o         1 MOL     -0.776917
     15 H4          2.4060    5.4850   -2.9820 hn        1 MOL      0.301627
     16 H5          4.6640    5.9770   -1.4520 h1        1 MOL      0.016012
     17 H6          4.6790    4.9970   -3.7500 hc        1 MOL      0.017644
     18 H7          4.2860    3.4220   -3.1690 hc        1 MOL      0.017644
     19 N2          4.9860    4.2610    0.4970 n         1 MOL     -0.877128
     20 C7          5.1050    3.2580    1.5780 c3        1 MOL      0.830223
     21 C8          3.9340    3.2930    2.6260 c         1 MOL      0.203512
     22 O5          3.2080    4.3230    2.7010 o         1 MOL     -0.498001
     23 C9          6.5130    3.7020    2.0710 c3        1 MOL     -0.340173
     24 H8          5.7390    4.9260    0.3980 hn        1 MOL      0.354593
     25 H9          5.2060    2.2510    1.1620 h1        1 MOL     -0.061820
     26 H10         6.7760    3.1160    2.9560 hc        1 MOL      0.063930
     27 H11         7.2270    3.5210    1.2620 hc        1 MOL      0.063930
     28 H12         6.4630    4.7380    2.3930 hc        1 MOL      0.063930
     29 N3          3.6470    2.2300    3.3520 n         1 MOL     -0.373516
     30 C10         4.4310    0.9890    3.6380 c3        1 MOL      0.175334
     31 C11         4.3830    0.0010    2.4180 c         1 MOL      0.453058
     32 O6          3.3330   -0.0860    1.7370 o         1 MOL     -0.476277
     33 C12         3.9160    0.4350    4.9850 c3        1 MOL     -0.229782
     34 C13         2.3810    0.1080    4.9620 c         1 MOL      0.790199
     35 O7          1.6140    0.4360    4.0430 o         1 MOL     -0.707339
     36 O8          1.9030   -0.3870    6.0120 o         1 MOL     -0.707339
     37 H13         2.7730    2.2600    3.8690 hn        1 MOL      0.284037
     38 H14         5.4800    1.2750    3.6960 h1        1 MOL     -0.029285
     39 H15         4.0440    1.0750    5.8590 hc        1 MOL      0.028659
     40 H16         4.5160   -0.4730    5.0690 hc        1 MOL      0.028659
     41 N4          5.4130   -0.8430    2.3150 n         1 MOL     -0.407111
     42 C14         5.7110   -1.4660    0.9970 c3        1 MOL     -0.126176
     43 C15         6.6370   -0.5760    0.0890 c         1 MOL      0.646304
     44 O9          6.8210    0.5930    0.4900 o         1 MOL     -0.549285
     45 H17         6.1600   -0.7090    2.9800 hn        1 MOL      0.293480
     46 H18         4.8150   -1.7620    0.4600 h1        1 MOL      0.101313
     47 H19         6.2290   -2.3790    1.2680 h1        1 MOL      0.101313
     48 N5          7.2260   -1.0550   -0.9760 n         1 MOL     -0.588306
     49 C16         7.2540   -2.4440   -1.4480 c3        1 MOL     -0.058366
     50 C17         6.0000   -3.0310   -2.2010 c         1 MOL      0.599224
     51 O10         6.0620   -4.1720   -2.5420 o         1 MOL     -0.526446
     52 C18         8.4770   -2.6830   -2.3380 c3        1 MOL     -0.339757
     53 C19         9.7660   -2.0690   -1.7760 c         1 MOL      0.754522
     54 N6         10.0850   -2.3110   -0.5160 n         1 MOL     -0.854537
     55 O11        10.4490   -1.4660   -2.5350 o         1 MOL     -0.550537
     56 H20         7.5800   -0.4260   -1.6790 hn        1 MOL      0.413334
     57 H21         7.3440   -3.1180   -0.5950 h1        1 MOL      0.067855
     58 H22         8.1850   -2.2400   -3.2840 hc        1 MOL      0.119505
     59 H23         8.6740   -3.7590   -2.4170 hc        1 MOL      0.119505
     60 H24         9.4550   -2.8980    0.0160 hn        1 MOL      0.386304
     61 H25        10.9420   -1.9340   -0.1400 hn        1 MOL      0.386304
     62 N7          5.0220   -2.1560   -2.5390 n         1 MOL     -0.374409
     63 C20         3.9290   -2.5850   -3.4270 c3        1 MOL     -0.050814
     64 C21         2.6870   -3.1300   -2.7600 c         1 MOL      0.591899
     65 O12         1.7300   -3.4150   -3.4500 o         1 MOL     -0.583943
     66 H26         5.1080   -1.2170   -2.1870 hn        1 MOL      0.301854
     67 H27         4.1990   -3.3320   -4.1750 h1        1 MOL      0.084360
     68 H28         3.5510   -1.7530   -4.0220 h1        1 MOL      0.084360
     69 N8          2.7480   -3.4010   -1.4500 n         1 MOL     -0.285794
     70 C22         1.7990   -4.3020   -0.7200 c3        1 MOL     -0.042889
     71 C23         0.4920   -3.5860   -0.4780 c         1 MOL      0.474051
     72 O13         0.4950   -2.6480    0.3040 o         1 MOL     -0.438057
     73 C24         2.4030   -4.9120    0.5540 c3        1 MOL      0.412831
     74 C25         2.1970   -6.4360    0.5130 c3        1 MOL     -0.352695
     75 O14         3.8050   -4.7990    0.6320 oh        1 MOL     -0.663383
     76 H29         3.5750   -3.0890   -0.9680 hn        1 MOL      0.157371
     77 H30         1.5720   -5.1090   -1.4230 h1        1 MOL      0.072238
     78 H31         2.0250   -4.5710    1.5210 h1        1 MOL     -0.011162
     79 H32         4.0490   -5.5220    1.2230 ho        1 MOL      0.398886
     80 H33         2.3530   -6.9630    1.4450 hc        1 MOL      0.080788
     81 H34         1.2230   -6.6900    0.0950 hc        1 MOL      0.080788
     82 H35         2.8670   -6.9000   -0.2030 hc        1 MOL      0.080788
     83 N9         -0.5480   -3.9500   -1.2280 n         1 MOL     -0.467863
     84 C26        -1.9190   -3.3190   -1.2300 c3        1 MOL     -0.086025
     85 C27        -2.5840   -3.7370    0.0960 c         1 MOL      0.425374
     86 O15        -2.4580   -4.8590    0.6110 o         1 MOL     -0.543536
     87 C28        -2.7400   -3.6770   -2.4470 c3        1 MOL      0.192402
     88 C29        -4.1660   -3.0630   -2.4290 c3        1 MOL      0.223965
     89 C30        -2.0780   -3.1820   -3.6980 c3        1 MOL     -0.315746
     90 C31        -5.0370   -3.6430   -3.4730 c3        1 MOL     -0.199447
     91 H36        -0.3740   -4.6990   -1.8750 hn        1 MOL      0.319022
     92 H37        -1.8020   -2.2360   -1.1640 h1        1 MOL      0.242663
     93 H38        -2.7500   -4.7640   -2.3890 hc        1 MOL     -0.015624
     94 H39        -4.1440   -1.9750   -2.4810 hc        1 MOL     -0.052963
     95 H40        -4.6050   -3.4200   -1.4870 hc        1 MOL     -0.052963
     96 H41        -2.2240   -2.1200   -3.9010 hc        1 MOL      0.070848
     97 H42        -1.0200   -3.4170   -3.6440 hc        1 MOL      0.070848
     98 H43        -2.4620   -3.6270   -4.6170 hc        1 MOL      0.070848
     99 H44        -4.7720   -3.0870   -4.3680 hc        1 MOL      0.024611
    100 H45        -4.9370   -4.7210   -3.6120 hc        1 MOL      0.024611
    101 H46        -6.0530   -3.3930   -3.1590 hc        1 MOL      0.024611
    102 N10        -3.3260   -2.8200    0.7280 n         1 MOL     -0.321043
    103 C32        -4.0720   -3.0180    1.9840 c3        1 MOL      0.275776
    104 C33        -5.3090   -2.1250    2.1300 c         1 MOL      0.466512
    105 O16        -6.0640   -2.2920    3.0890 o         1 MOL     -0.544618
    106 C34        -3.1630   -2.9370    3.2030 c3        1 MOL     -0.238067
    107 C35        -2.3200   -1.7080    3.3670 c         1 MOL      0.904569
    108 O17        -1.1370   -1.7280    3.0590 o         1 MOL     -0.749197
    109 O18        -2.8860   -0.6510    3.7260 o         1 MOL     -0.749197
    110 H47        -3.3120   -1.8850    0.3490 hn        1 MOL      0.124713
    111 H48        -4.5530   -3.9940    2.0670 h1        1 MOL      0.038910
    112 H49        -2.4690   -3.7740    3.0950 hc        1 MOL      0.018112
    113 H50        -3.7560   -2.9910    4.1160 hc        1 MOL      0.018112
    114 N11        -5.4800   -1.2130    1.1920 n         1 MOL     -0.687227
    115 C36        -6.7180   -0.4140    1.1770 c3        1 MOL      0.484501
    116 C37        -6.3840    0.9550    0.5270 c         1 MOL      0.323334
    117 O19        -6.9440    1.2640   -0.5400 o         1 MOL     -0.479290
    118 C38        -7.7580   -1.1110    0.3440 c3        1 MOL     -0.276903
    119 C39        -9.0920   -0.4360    0.0290 ca        1 MOL      0.012921
    120 C40        -9.6660    0.6010    0.7650 ca        1 MOL     -0.077140
    121 C41        -9.8770   -0.8960   -1.0340 ca        1 MOL     -0.077140
    122 C42       -10.9230    1.1580    0.4770 ca        1 MOL     -0.169356
    123 C43       -11.1930   -0.4110   -1.2860 ca        1 MOL     -0.169356
    124 C44       -11.6850    0.6160   -0.5220 ca        1 MOL     -0.063572
    125 H51        -4.7810   -1.0040    0.5050 hn        1 MOL      0.294540
    126 H52        -7.1460   -0.3290    2.1790 h1        1 MOL      0.008471
    127 H53        -7.9790   -2.0960    0.7550 hc        1 MOL      0.107023
    128 H54        -7.3880   -1.3170   -0.6630 hc        1 MOL      0.107023
    129 H55        -9.0410    0.9690    1.5570 ha        1 MOL      0.072442
    130 H56        -9.5300   -1.7490   -1.6130 ha        1 MOL      0.072442
    131 H57       -11.3310    1.8730    1.1730 ha        1 MOL      0.106887
    132 H58       -11.8050   -0.8080   -2.0820 ha        1 MOL      0.106887
    133 H59       -12.7240    0.8850   -0.6530 ha        1 MOL      0.073242
    134 N12        -5.5000    1.7600    1.1580 n         1 MOL     -0.210285
    135 C45        -5.1990    3.1960    0.7430 c3        1 MOL     -0.104208
    136 C46        -4.6460    3.3870   -0.7160 c         1 MOL      0.298606
    137 O20        -4.7710    4.4500   -1.3220 o         1 MOL     -0.484542
    138 C47        -4.2000    3.6350    1.7580 c3        1 MOL     -0.056151
    139 C48        -4.4500    2.9260    3.1250 c3        1 MOL     -0.302993
    140 C49        -4.8910    1.5340    2.5320 c3        1 MOL      0.183706
    141 H60        -6.1200    3.7660    0.9290 h1        1 MOL      0.122866
    142 H61        -3.1480    3.4870    1.4990 hc        1 MOL      0.069162
    143 H62        -4.3510    4.7190    1.8540 hc        1 MOL      0.069162
    144 H63        -3.5250    2.8730    3.6980 hc        1 MOL      0.109727
    145 H64        -5.2520    3.4370    3.6630 hc        1 MOL      0.109727
    146 H65        -4.0980    0.7940    2.4140 h1        1 MOL      0.050741
    147 H66        -5.6500    1.1280    3.2000 h1        1 MOL      0.050741
    148 N13        -4.2840    2.2230   -1.3650 n         1 MOL      0.037440
    149 C50        -3.8520    2.1310   -2.7640 c3        1 MOL     -0.308288
    150 C51        -5.0590    2.1330   -3.7230 c         1 MOL      0.565916
    151 O21        -5.1790    2.9520   -4.5580 o         1 MOL     -0.544198
    152 C52        -2.7920    0.9990   -2.9260 c3        1 MOL      0.058156
    153 C53        -1.6860    0.9780   -1.8340 c3        1 MOL      0.205766
    154 C54        -2.1210    0.2040   -0.5790 c         1 MOL      0.344348
    155 O22        -1.3060    0.1430    0.3540 o         1 MOL     -0.591551
    156 O23        -3.2460   -0.3070   -0.5210 o         1 MOL     -0.591551
    157 H67        -4.3030    1.3440   -0.8710 hn        1 MOL      0.206218
    158 H68        -3.2980    3.0380   -2.9860 h1        1 MOL      0.125963
    159 H69        -2.1970    1.1830   -3.8160 hc        1 MOL     -0.026011
    160 H70        -3.1450   -0.0340   -3.0140 hc        1 MOL     -0.026011
    161 H71        -1.3630    1.9960   -1.5980 hc        1 MOL     -0.036892
    162 H72        -0.8390    0.5180   -2.3290 hc        1 MOL     -0.036892
    163 N14        -5.9140    1.1460   -3.5650 n         1 MOL     -0.242045
    164 C55        -7.1020    1.1430   -4.3850 c3        1 MOL     -0.187034
    165 H73        -7.9840    1.1250   -3.7460 h1        1 MOL      0.081023
    166 H74        -7.1200    2.0400   -5.0030 h1        1 MOL      0.081023
    167 H75        -7.1000    0.2600   -5.0250 h1        1 MOL      0.081023
    168 H76        -5.7340    0.4720   -2.8350 hn        1 MOL      0.251268
    169 Ca1         0.7270   -0.4310    1.8290 Ca        1 MOL      1.532620
    170 O24        -1.4060    1.2940    2.8800 oh        1 MOL     -0.821278
    171 O25         1.0150    2.2640    1.3250 oh        1 MOL     -0.821278
    172 H77        -1.9850    0.5930    3.1630 ho        1 MOL      0.403495
    173 H78         1.8290    2.7360    1.1180 ho        1 MOL      0.403495
    174 H79        -1.4270    1.2610    1.9180 ho        1 MOL      0.403495
    175 H80         0.6100    2.7820    2.0190 ho        1 MOL      0.403495
    176 O26         1.7750    0.2980   -0.7530 oh        1 MOL     -0.821278
    177 H81         2.5360    0.8720   -0.8530 ho        1 MOL      0.403495
    178 H82         1.0240    0.8550   -0.9150 ho        1 MOL      0.403495
    179 O27         1.8460   -2.5610    3.0220 oh        1 MOL     -0.821278
    180 H83         2.4640   -3.0290    3.5890 ho        1 MOL      0.403495
    181 H84         1.0470   -3.0940    3.0610 ho        1 MOL      0.403495
@<TRIPOS>BOND
     1    1    2 1   
     2    1    4 1   
     3    1    5 1   
     4    1    6 1   
     5    2    3 2   
     6    2    7 1   
     7    7    8 1   
     8    7   15 1   
     9    8    9 1   
    10    8   11 1   
    11    8   16 1   
    12    9   10 2   
    13    9   19 1   
    14   11   12 1   
    15   11   17 1   
    16   11   18 1   
    17   12   13 1   
    18   12   14 1   
    19   19   20 1   
    20   19   24 1   
    21   20   21 1   
    22   20   23 1   
    23   20   25 1   
    24   21   22 2   
    25   21   29 1   
    26   23   26 1   
    27   23   27 1   
    28   23   28 1   
    29   29   30 1   
    30   29   37 1   
    31   30   31 1   
    32   30   33 1   
    33   30   38 1   
    34   31   32 2   
    35   31   41 1   
    36   33   34 1   
    37   33   39 1   
    38   33   40 1   
    39   34   35 1   
    40   34   36 1   
    41   41   42 1   
    42   41   45 1   
    43   42   43 1   
    44   42   46 1   
    45   42   47 1   
    46   43   44 2   
    47   43   48 1   
    48   48   49 1   
    49   48   56 1   
    50   49   50 1   
    51   49   52 1   
    52   49   57 1   
    53   50   51 2   
    54   50   62 1   
    55   52   53 1   
    56   52   58 1   
    57   52   59 1   
    58   53   54 1   
    59   53   55 2   
    60   54   60 1   
    61   54   61 1   
    62   62   63 1   
    63   62   66 1   
    64   63   64 1   
    65   63   67 1   
    66   63   68 1   
    67   64   65 2   
    68   64   69 1   
    69   69   70 1   
    70   69   76 1   
    71   70   71 1   
    72   70   73 1   
    73   70   77 1   
    74   71   72 2   
    75   71   83 1   
    76   73   74 1   
    77   73   75 1   
    78   73   78 1   
    79   74   80 1   
    80   74   81 1   
    81   74   82 1   
    82   75   79 1   
    83   83   84 1   
    84   83   91 1   
    85   84   85 1   
    86   84   87 1   
    87   84   92 1   
    88   85   86 2   
    89   85  102 1   
    90   87   88 1   
    91   87   89 1   
    92   87   93 1   
    93   88   90 1   
    94   88   94 1   
    95   88   95 1   
    96   89   96 1   
    97   89   97 1   
    98   89   98 1   
    99   90   99 1   
   100   90  100 1   
   101   90  101 1   
   102  102  103 1   
   103  102  110 1   
   104  103  104 1   
   105  103  106 1   
   106  103  111 1   
   107  104  105 2   
   108  104  114 1   
   109  106  107 1   
   110  106  112 1   
   111  106  113 1   
   112  107  108 1   
   113  107  109 1   
   114  114  115 1   
   115  114  125 1   
   116  115  116 1   
   117  115  118 1   
   118  115  126 1   
   119  116  117 2   
   120  116  134 1   
   121  118  119 1   
   122  118  127 1   
   123  118  128 1   
   124  119  120 ar  
   125  119  121 ar  
   126  120  122 ar  
   127  120  129 1   
   128  121  123 ar  
   129  121  130 1   
   130  122  124 ar  
   131  122  131 1   
   132  123  124 ar  
   133  123  132 1   
   134  124  133 1   
   135  134  135 1   
   136  134  140 1   
   137  135  136 1   
   138  135  138 1   
   139  135  141 1   
   140  136  137 2   
   141  136  148 1   
   142  138  139 1   
   143  138  142 1   
   144  138  143 1   
   145  139  140 1   
   146  139  144 1   
   147  139  145 1   
   148  140  146 1   
   149  140  147 1   
   150  148  149 1   
   151  148  157 1   
   152  149  150 1   
   153  149  152 1   
   154  149  158 1   
   155  150  151 2   
   156  150  163 1   
   157  152  153 1   
   158  152  159 1   
   159  152  160 1   
   160  153  154 1   
   161  153  161 1   
   162  153  162 1   
   163  154  155 1   
   164  154  156 1   
   165  163  164 1   
   166  163  168 1   
   167  164  165 1   
   168  164  166 1   
   169  164  167 1   
   170  170  172 1   
   171  170  174 1   
   172  171  173 1   
   173  171  175 1   
   174  176  177 1   
   175  176  178 1   
   176  179  180 1   
   177  179  181 1   
@<TRIPOS>SUBSTRUCTURE
     1 MOL         1 TEMP              0 ****  ****    0 ROOT
