@<TRIPOS>MOLECULE
MOL
  179   176     1     0     0
SMALL
resp


@<TRIPOS>ATOM
      1 C1          1.2460   -4.4410    5.8690 c3        1 MOL     -0.439846
      2 C2          1.1970   -4.1370    4.3820 c         1 MOL      0.655301
      3 O1          0.1660   -4.1700    3.7520 o         1 MOL     -0.562937
      4 H1          2.2800   -4.6090    6.1710 hc        1 MOL      0.123926
      5 H2          0.8380   -3.5990    6.4270 hc        1 MOL      0.123926
      6 H3          0.6580   -5.3350    6.0780 hc        1 MOL      0.123926
      7 N1          2.3790   -3.8790    3.7950 n         1 MOL     -0.435738
      8 C3          2.6620   -3.3140    2.5290 c3        1 MOL     -0.048323
      9 C4          3.3420   -4.3710    1.6070 c         1 MOL      0.482603
     10 O2          4.4800   -4.8140    1.8500 o         1 MOL     -0.476816
     11 C5          3.5890   -2.1140    2.6640 c3        1 MOL     -0.360960
     12 C6          3.7680   -1.3400    1.4300 c         1 MOL      0.989039
     13 O3          3.8360   -0.0800    1.4630 o         1 MOL     -0.828022
     14 O4          3.8560   -1.8280    0.3190 o         1 MOL     -0.828022
     15 H4          3.1100   -3.8710    4.4870 hn        1 MOL      0.297172
     16 H5          1.7240   -2.8990    2.1470 h1        1 MOL      0.029018
     17 H6          4.6200   -2.3900    2.9220 hc        1 MOL      0.108898
     18 H7          3.2690   -1.3630    3.3900 hc        1 MOL      0.108898
     19 N2          2.6260   -4.7730    0.4970 n         1 MOL     -0.309940
     20 C7          3.1620   -5.6800   -0.5470 c3        1 MOL     -0.181945
     21 C8          4.3970   -5.2510   -1.3440 c         1 MOL      0.539556
     22 O5          5.0900   -6.1100   -1.8520 o         1 MOL     -0.548962
     23 C9          2.0380   -6.1220   -1.4430 c3        1 MOL     -0.013991
     24 C10         1.1030   -7.0590   -0.7250 c3        1 MOL      0.085486
     25 C11        -0.1010   -7.4550   -1.5170 c3        1 MOL     -0.124106
     26 C12        -1.1160   -6.3910   -1.8590 c3        1 MOL      0.057545
     27 N3         -2.3080   -7.1310   -2.3530 n4        1 MOL     -0.142779
     28 H8          1.6890   -4.4000    0.4240 hn        1 MOL      0.262328
     29 H9          3.5090   -6.5670   -0.0190 h1        1 MOL      0.138582
     30 H10         2.3950   -6.7730   -2.2450 hc        1 MOL      0.052942
     31 H11         1.5580   -5.3340   -2.0160 hc        1 MOL      0.052942
     32 H12         0.6440   -6.5290    0.1200 hc        1 MOL      0.006154
     33 H13         1.6460   -7.9520   -0.4210 hc        1 MOL      0.006154
     34 H14        -0.6300   -8.2720   -1.0250 hc        1 MOL      0.044775
     35 H15         0.3810   -7.8490   -2.4050 hc        1 MOL      0.044775
     36 H16        -0.6500   -5.8180   -2.6570 hx        1 MOL      0.058232
     37 H17        -1.2870   -5.7270   -1.0110 hx        1 MOL      0.058232
     38 H18        -2.7120   -7.6710   -1.5970 hn        1 MOL      0.223838
     39 H19        -3.1400   -6.6430   -2.6460 hn        1 MOL      0.223838
     40 H20        -2.0320   -7.8150   -3.0360 hn        1 MOL      0.223838
     41 N4          4.6460   -3.9380   -1.4420 n         1 MOL     -0.263682
     42 C13         5.6960   -3.3680   -2.3220 c3        1 MOL      0.069022
     43 C14         6.8420   -2.7060   -1.5900 c         1 MOL      0.386604
     44 O6          7.9780   -2.6490   -2.0580 o         1 MOL     -0.501242
     45 C15         5.0960   -2.3900   -3.3590 c3        1 MOL     -0.189080
     46 C16         4.1520   -1.4420   -2.6660 c         1 MOL      0.647992
     47 O7          4.5570   -0.3040   -2.2550 o         1 MOL     -0.707166
     48 O8          2.9830   -1.8200   -2.3960 o         1 MOL     -0.707166
     49 H21         4.0330   -3.2720   -0.9970 hn        1 MOL      0.166701
     50 H22         6.2090   -4.1380   -2.8940 h1        1 MOL      0.087831
     51 H23         4.5930   -3.0210   -4.1000 hc        1 MOL      0.071705
     52 H24         5.8750   -1.8110   -3.8480 hc        1 MOL      0.071705
     53 N5          6.5410   -2.1880   -0.3950 n         1 MOL     -0.148678
     54 C17         7.4820   -1.4920    0.4710 c3        1 MOL     -0.197134
     55 C18         7.6730   -0.0380    0.2470 c         1 MOL      0.656934
     56 O9          8.6540    0.5120    0.7570 o         1 MOL     -0.589927
     57 H25         5.5780   -2.2240   -0.0970 hn        1 MOL      0.180663
     58 H26         8.4650   -1.9610    0.3960 h1        1 MOL      0.097331
     59 H27         7.1760   -1.4940    1.5180 h1        1 MOL      0.097331
     60 N6          6.7550    0.5960   -0.4810 n         1 MOL     -0.286233
     61 C19         6.8190    2.0200   -0.9120 c3        1 MOL     -0.157897
     62 C20         5.4910    2.8370   -0.8030 c         1 MOL      0.818782
     63 O10         4.4020    2.2430   -0.7460 o         1 MOL     -0.624529
     64 C21         7.3140    1.9150   -2.3090 c3        1 MOL     -0.396457
     65 C22         8.7900    1.4660   -2.3310 c         1 MOL      0.767243
     66 N7          9.7100    2.2100   -1.6900 n         1 MOL     -0.928381
     67 O11         9.2040    0.5020   -2.9170 o         1 MOL     -0.529390
     68 H28         5.9940    0.0630   -0.8900 hn        1 MOL      0.262494
     69 H29         7.5420    2.5440   -0.2810 h1        1 MOL      0.044131
     70 H30         7.1880    2.8320   -2.8890 hc        1 MOL      0.107795
     71 H31         6.7560    1.1350   -2.8330 hc        1 MOL      0.107795
     72 H32         9.3800    2.9990   -1.1540 hn        1 MOL      0.414619
     73 H33        10.6080    1.7490   -1.6160 hn        1 MOL      0.414619
     74 N8          5.6940    4.1440   -0.7210 n         1 MOL     -0.488566
     75 C23         4.7780    5.2350   -0.7160 c3        1 MOL     -0.033593
     76 C24         3.7740    5.1280    0.3910 c         1 MOL      0.472454
     77 O12         4.1430    4.9800    1.6070 o         1 MOL     -0.502942
     78 H34         6.6420    4.4460   -0.5220 hn        1 MOL      0.321239
     79 H35         4.2270    5.3880   -1.6530 h1        1 MOL      0.076510
     80 H36         5.2280    6.2160   -0.5850 h1        1 MOL      0.076510
     81 N9          2.4740    5.0010    0.0680 n         1 MOL     -0.441299
     82 C25         1.3960    4.6450    0.9490 c3        1 MOL      0.043530
     83 C26         1.1770    3.1800    1.2690 c         1 MOL      0.504454
     84 O13         1.8370    2.2750    0.7010 o         1 MOL     -0.333601
     85 C27         0.1460    5.3390    0.5320 c3        1 MOL     -0.124697
     86 C28         0.2650    6.7650    0.0190 ca        1 MOL      0.070859
     87 C29         0.7560    7.7670    0.8570 ca        1 MOL     -0.126447
     88 C30        -0.3720    7.0950   -1.1580 ca        1 MOL     -0.126447
     89 C31         0.7090    9.1060    0.4790 ca        1 MOL     -0.290367
     90 C32        -0.3870    8.4440   -1.5650 ca        1 MOL     -0.290367
     91 C33         0.1030    9.4530   -0.7190 ca        1 MOL      0.374588
     92 O14        -0.0140   10.7550   -1.1050 oh        1 MOL     -0.499285
     93 H37         2.3230    4.9960   -0.9340 hn        1 MOL      0.246066
     94 H38         1.6360    5.0050    1.9470 h1        1 MOL      0.106618
     95 H39        -0.5000    5.3750    1.4000 hc        1 MOL      0.040601
     96 H40        -0.3600    4.7750   -0.2510 hc        1 MOL      0.040601
     97 H41         1.0820    7.4860    1.8490 ha        1 MOL      0.126224
     98 H42        -0.8050    6.3020   -1.7530 ha        1 MOL      0.126224
     99 H43         1.0740    9.8630    1.1580 ha        1 MOL      0.161859
    100 H44        -0.8230    8.7680   -2.4930 ha        1 MOL      0.161859
    101 H45         0.2560   11.3870   -0.4310 ho        1 MOL      0.379411
    102 N10         0.3590    2.8910    2.2700 n         1 MOL     -0.674088
    103 C34        -0.0410    1.5080    2.7400 c3        1 MOL     -0.169985
    104 C35        -0.3120    0.5320    1.5510 c         1 MOL      0.702441
    105 O15         0.5920    0.0190    0.8850 o         1 MOL     -0.673964
    106 C36         0.9380    0.9440    3.7750 c3        1 MOL      0.565390
    107 C37         0.5010   -0.4320    4.3500 c3        1 MOL      0.041736
    108 C38         1.0650    2.0160    4.8990 c3        1 MOL     -0.470782
    109 C39        -0.8100   -0.3720    5.2160 c3        1 MOL     -0.170290
    110 H46         0.0990    3.6740    2.8620 hn        1 MOL      0.383838
    111 H47        -0.9680    1.5570    3.3140 h1        1 MOL      0.090853
    112 H48         1.8950    0.6570    3.3370 hc        1 MOL     -0.103085
    113 H49         1.3480   -0.7520    4.9530 hc        1 MOL      0.009801
    114 H50         0.3640   -1.1250    3.5130 hc        1 MOL      0.009801
    115 H51         0.0600    2.3610    5.0990 hc        1 MOL      0.104889
    116 H52         1.6240    1.6020    5.7390 hc        1 MOL      0.104889
    117 H53         1.5510    2.8750    4.4440 hc        1 MOL      0.104889
    118 H54        -1.6210   -0.0430    4.5600 hc        1 MOL      0.034357
    119 H55        -1.0010   -1.3600    5.6310 hc        1 MOL      0.034357
    120 H56        -0.8250    0.3840    6.0020 hc        1 MOL      0.034357
    121 N11        -1.5970    0.1980    1.4140 n         1 MOL     -0.483347
    122 C40        -2.0750   -0.9060    0.6090 c3        1 MOL     -0.024382
    123 C41        -3.4350   -0.7210   -0.0210 c         1 MOL      0.674835
    124 O16        -3.8760   -1.6100   -0.7360 o         1 MOL     -0.610034
    125 C42        -2.0320   -2.2260    1.4150 c3        1 MOL      0.180973
    126 O17        -2.8570   -2.2170    2.5480 oh        1 MOL     -0.604807
    127 H57        -2.2560    0.6550    2.0240 hn        1 MOL      0.316850
    128 H58        -1.3890   -1.0250   -0.2230 h1        1 MOL      0.023707
    129 H59        -1.0000   -2.3370    1.7200 h1        1 MOL      0.039303
    130 H60        -2.3920   -3.1110    0.8820 h1        1 MOL      0.039303
    131 H61        -3.5690   -2.8090    2.2630 ho        1 MOL      0.433178
    132 N12        -4.2120    0.2270    0.4520 n         1 MOL     -0.560160
    133 C43        -5.5960    0.2800    0.0170 c3        1 MOL      0.154085
    134 C44        -5.8020    0.8160   -1.4250 c         1 MOL      0.594073
    135 O18        -4.9430    1.6670   -1.7840 o         1 MOL     -0.590430
    136 C45        -6.3350    1.0840    1.0600 c3        1 MOL     -0.151747
    137 H62        -3.8610    0.8580    1.1540 hn        1 MOL      0.290668
    138 H63        -6.0690   -0.6970    0.1020 h1        1 MOL      0.046662
    139 H64        -5.8930    2.0780    1.1390 hc        1 MOL      0.050638
    140 H65        -7.3860    1.1310    0.7520 hc        1 MOL      0.050638
    141 H66        -6.1840    0.6660    2.0560 hc        1 MOL      0.050638
    142 N13        -6.7690    0.3910   -2.2180 n         1 MOL     -0.635782
    143 C46        -7.9370   -0.4900   -1.9380 c3        1 MOL      0.564914
    144 C47        -9.1710    0.2290   -2.4250 c         1 MOL      0.332985
    145 O19        -9.1280    0.5630   -3.6070 o         1 MOL     -0.513065
    146 C48        -7.5300   -1.8400   -2.4830 c3        1 MOL     -0.471203
    147 H67        -6.8530    0.7330   -3.1660 hn        1 MOL      0.337987
    148 H68        -8.0370   -0.7190   -0.8790 h1        1 MOL     -0.038293
    149 H69        -6.7390   -2.3240   -1.8980 hc        1 MOL      0.121922
    150 H70        -8.3750   -2.4810   -2.2680 hc        1 MOL      0.121922
    151 H71        -7.2660   -1.6590   -3.5270 hc        1 MOL      0.121922
    152 N14       -10.2090    0.4940   -1.6160 n         1 MOL     -0.444486
    153 C49       -10.4590   -0.0560   -0.2260 c3        1 MOL     -0.011842
    154 C50        -9.9790    0.9830    0.8800 c         1 MOL      0.350755
    155 O20        -9.6390    0.6270    2.0410 o         1 MOL     -0.495165
    156 C51       -11.8590   -0.4990    0.0190 c3        1 MOL     -0.109377
    157 C52       -12.2850   -1.5750   -1.0610 c3        1 MOL     -0.201392
    158 C53       -13.8320   -1.9550   -0.9440 c         1 MOL      0.719527
    159 O21       -14.1560   -2.6840   -0.0070 o         1 MOL     -0.658582
    160 O22       -14.5820   -1.6900   -1.8630 o         1 MOL     -0.658582
    161 H72       -10.9590    1.0520   -1.9940 hn        1 MOL      0.345183
    162 H73        -9.7870   -0.8990   -0.0850 h1        1 MOL      0.100014
    163 H74       -12.5300    0.3600    0.0220 hc        1 MOL      0.077417
    164 H75       -11.8120   -1.0210    0.9670 hc        1 MOL      0.077417
    165 H76       -11.6630   -2.4630   -0.9570 hc        1 MOL      0.039839
    166 H77       -12.1930   -1.1400   -2.0570 hc        1 MOL      0.039839
    167 N15       -10.0360    2.2630    0.5870 n         1 MOL     -0.175376
    168 C54        -9.4150    3.2990    1.3550 c3        1 MOL     -0.312722
    169 H78        -8.3500    3.0840    1.4590 h1        1 MOL      0.126896
    170 H79        -9.5440    4.2560    0.8490 h1        1 MOL      0.126896
    171 H80        -9.8740    3.3450    2.3430 h1        1 MOL      0.126896
    172 H81       -10.2920    2.5560   -0.3500 hn        1 MOL      0.221408
    173 Ca1         2.5250    0.2840   -0.7950 Ca        1 MOL      1.770165
    174 O23         1.9390    2.3890   -2.1570 oh        1 MOL     -0.880022
    175 H82         1.0990    2.8470   -2.2840 ho        1 MOL      0.436524
    176 H83         2.5520    2.8670   -2.7090 ho        1 MOL      0.436524
    177 O24         0.3310   -0.0400   -2.5320 oh        1 MOL     -0.880022
    178 H84         0.1610   -0.6390   -3.2560 ho        1 MOL      0.436524
    179 H85        -0.5390    0.2610   -2.2600 ho        1 MOL      0.436524
@<TRIPOS>BOND
     1    1    2 1   
     2    1    4 1   
     3    1    5 1   
     4    1    6 1   
     5    2    3 2   
     6    2    7 1   
     7    7    8 1   
     8    7   15 1   
     9    8    9 1   
    10    8   11 1   
    11    8   16 1   
    12    9   10 2   
    13    9   19 1   
    14   11   12 1   
    15   11   17 1   
    16   11   18 1   
    17   12   13 1   
    18   12   14 1   
    19   19   20 1   
    20   19   28 1   
    21   20   21 1   
    22   20   23 1   
    23   20   29 1   
    24   21   22 2   
    25   21   41 1   
    26   23   24 1   
    27   23   30 1   
    28   23   31 1   
    29   24   25 1   
    30   24   32 1   
    31   24   33 1   
    32   25   26 1   
    33   25   34 1   
    34   25   35 1   
    35   26   27 1   
    36   26   36 1   
    37   26   37 1   
    38   27   38 1   
    39   27   39 1   
    40   27   40 1   
    41   41   42 1   
    42   41   49 1   
    43   42   43 1   
    44   42   45 1   
    45   42   50 1   
    46   43   44 2   
    47   43   53 1   
    48   45   46 1   
    49   45   51 1   
    50   45   52 1   
    51   46   47 1   
    52   46   48 1   
    53   53   54 1   
    54   53   57 1   
    55   54   55 1   
    56   54   58 1   
    57   54   59 1   
    58   55   56 2   
    59   55   60 1   
    60   60   61 1   
    61   60   68 1   
    62   61   62 1   
    63   61   64 1   
    64   61   69 1   
    65   62   63 2   
    66   62   74 1   
    67   64   65 1   
    68   64   70 1   
    69   64   71 1   
    70   65   66 1   
    71   65   67 2   
    72   66   72 1   
    73   66   73 1   
    74   74   75 1   
    75   74   78 1   
    76   75   76 1   
    77   75   79 1   
    78   75   80 1   
    79   76   77 2   
    80   76   81 1   
    81   81   82 1   
    82   81   93 1   
    83   82   83 1   
    84   82   85 1   
    85   82   94 1   
    86   83   84 2   
    87   83  102 1   
    88   85   86 1   
    89   85   95 1   
    90   85   96 1   
    91   86   87 ar  
    92   86   88 ar  
    93   87   89 ar  
    94   87   97 1   
    95   88   90 ar  
    96   88   98 1   
    97   89   91 ar  
    98   89   99 1   
    99   90   91 ar  
   100   90  100 1   
   101   91   92 1   
   102   92  101 1   
   103  102  103 1   
   104  102  110 1   
   105  103  104 1   
   106  103  106 1   
   107  103  111 1   
   108  104  105 2   
   109  104  121 1   
   110  106  107 1   
   111  106  108 1   
   112  106  112 1   
   113  107  109 1   
   114  107  113 1   
   115  107  114 1   
   116  108  115 1   
   117  108  116 1   
   118  108  117 1   
   119  109  118 1   
   120  109  119 1   
   121  109  120 1   
   122  121  122 1   
   123  121  127 1   
   124  122  123 1   
   125  122  125 1   
   126  122  128 1   
   127  123  124 2   
   128  123  132 1   
   129  125  126 1   
   130  125  129 1   
   131  125  130 1   
   132  126  131 1   
   133  132  133 1   
   134  132  137 1   
   135  133  134 1   
   136  133  136 1   
   137  133  138 1   
   138  134  135 2   
   139  134  142 1   
   140  136  139 1   
   141  136  140 1   
   142  136  141 1   
   143  142  143 1   
   144  142  147 1   
   145  143  144 1   
   146  143  146 1   
   147  143  148 1   
   148  144  145 2   
   149  144  152 1   
   150  146  149 1   
   151  146  150 1   
   152  146  151 1   
   153  152  153 1   
   154  152  161 1   
   155  153  154 1   
   156  153  156 1   
   157  153  162 1   
   158  154  155 2   
   159  154  167 1   
   160  156  157 1   
   161  156  163 1   
   162  156  164 1   
   163  157  158 1   
   164  157  165 1   
   165  157  166 1   
   166  158  159 1   
   167  158  160 1   
   168  167  168 1   
   169  167  172 1   
   170  168  169 1   
   171  168  170 1   
   172  168  171 1   
   173  174  175 1   
   174  174  176 1   
   175  177  178 1   
   176  177  179 1   
@<TRIPOS>SUBSTRUCTURE
     1 MOL         1 TEMP              0 ****  ****    0 ROOT
