@<TRIPOS>MOLECULE
MOL
  181   177     1     0     0
SMALL
resp


@<TRIPOS>ATOM
      1 C1          2.4400   -0.8630    4.8600 c3        1 MOL     -0.355333
      2 C2          3.4320   -0.2840    3.8410 c         1 MOL      0.614486
      3 O1          3.1440    0.5800    2.9960 o         1 MOL     -0.503518
      4 H1          2.7870   -0.6410    5.8700 hc        1 MOL      0.084414
      5 H2          1.4580   -0.4150    4.7060 hc        1 MOL      0.084414
      6 H3          2.3730   -1.9430    4.7290 hc        1 MOL      0.084414
      7 N1          4.6820   -0.7590    3.9640 n         1 MOL     -0.538509
      8 C3          5.6490   -0.6810    2.8600 c3        1 MOL      0.380428
      9 C4          5.8460   -1.9180    2.0040 c         1 MOL      0.297270
     10 O2          6.7600   -2.0990    1.2000 o         1 MOL     -0.431915
     11 C5          6.9750   -0.1340    3.4370 c3        1 MOL     -0.140403
     12 C6          7.0680    1.3300    3.9280 c         1 MOL      0.705841
     13 O3          7.7550    1.6340    4.8920 o         1 MOL     -0.720797
     14 O4          6.4570    2.1740    3.2480 o         1 MOL     -0.720797
     15 H4          4.8580   -1.4570    4.6740 hn        1 MOL      0.280699
     16 H5          5.2690    0.0800    2.1780 h1        1 MOL      0.005097
     17 H6          7.7260   -0.2270    2.6410 hc        1 MOL     -0.017546
     18 H7          7.2860   -0.7240    4.3000 hc        1 MOL     -0.017546
     19 N2          5.1350   -2.9860    2.2760 n         1 MOL     -0.450647
     20 C7          5.3090   -4.3530    1.7650 c3        1 MOL      0.287117
     21 C8          5.4850   -4.3830    0.2400 c         1 MOL      0.549468
     22 O5          6.3380   -4.9800   -0.3670 o         1 MOL     -0.556703
     23 C9          6.4570   -5.0410    2.5300 c3        1 MOL     -0.248391
     24 H8          4.4230   -2.8830    2.9750 hn        1 MOL      0.220864
     25 H9          4.4040   -4.9550    1.8630 h1        1 MOL     -0.000811
     26 H10         7.2910   -4.3510    2.5890 hc        1 MOL      0.063024
     27 H11         6.1630   -5.3830    3.5240 hc        1 MOL      0.063024
     28 H12         6.7580   -6.0420    2.2210 hc        1 MOL      0.063024
     29 N3          4.6410   -3.6090   -0.5080 n         1 MOL     -0.521495
     30 C10         4.7000   -3.3230   -1.9550 c3        1 MOL     -0.068620
     31 C11         5.9030   -2.4490   -2.3890 c         1 MOL      0.489216
     32 O6          6.1800   -2.2600   -3.6000 o         1 MOL     -0.582997
     33 C12         4.4800   -4.6320   -2.7110 c3        1 MOL      0.005188
     34 C13         3.2450   -5.4880   -2.3250 c         1 MOL      0.689959
     35 O7          3.2030   -6.5700   -2.9410 o         1 MOL     -0.735282
     36 O8          2.3470   -5.0300   -1.5700 o         1 MOL     -0.735282
     37 H13         3.9700   -3.1400    0.0880 hn        1 MOL      0.314385
     38 H14         3.7990   -2.7320   -2.1870 h1        1 MOL      0.085393
     39 H15         5.3790   -5.2510   -2.6340 hc        1 MOL      0.020774
     40 H16         4.5130   -4.4020   -3.7780 hc        1 MOL      0.020774
     41 N4          6.6050   -1.7820   -1.4570 n         1 MOL     -0.006745
     42 C14         7.5320   -0.7870   -1.8150 c3        1 MOL     -0.285881
     43 C15         7.0230    0.5400   -2.3590 c         1 MOL      0.604309
     44 O9          7.8310    1.4320   -2.7090 o         1 MOL     -0.582051
     45 H17         6.5880   -2.0180   -0.4710 hn        1 MOL      0.106848
     46 H18         8.4000   -1.1090   -2.3880 h1        1 MOL      0.121064
     47 H19         7.9930   -0.5190   -0.8700 h1        1 MOL      0.121064
     48 N5          5.7100    0.7380   -2.2570 n         1 MOL     -0.416268
     49 C16         5.0320    1.9670   -2.7070 c3        1 MOL      0.157375
     50 C17         4.5970    2.8810   -1.6020 c         1 MOL      0.539666
     51 O10         4.4430    2.4600   -0.4220 o         1 MOL     -0.467208
     52 C18         4.0740    1.5940   -3.8400 c3        1 MOL     -0.137416
     53 C19         2.6540    1.1880   -3.3550 c         1 MOL      0.617349
     54 N6          1.6520    0.9610   -4.2110 n         1 MOL     -0.808055
     55 O11         2.3710    0.9820   -2.1980 o         1 MOL     -0.472226
     56 H20         5.1450   -0.0680   -2.0400 hn        1 MOL      0.197231
     57 H21         5.8370    2.5500   -3.1490 h1        1 MOL      0.045890
     58 H22         4.4880    0.8550   -4.5230 hc        1 MOL      0.037037
     59 H23         3.8540    2.3810   -4.5610 hc        1 MOL      0.037037
     60 H24         1.7530    1.0540   -5.2160 hn        1 MOL      0.359251
     61 H25         0.7350    0.7170   -3.8490 hn        1 MOL      0.359251
     62 N7          4.4870    4.1960   -1.8350 n         1 MOL     -0.466597
     63 C20         3.9740    5.2180   -0.9300 c3        1 MOL      0.056557
     64 C21         2.7000    5.8640   -1.3700 c         1 MOL      0.554778
     65 O12         2.0780    5.4710   -2.3330 o         1 MOL     -0.541111
     66 H26         4.8320    4.5660   -2.7090 hn        1 MOL      0.247276
     67 H27         4.6830    5.9830   -0.6000 h1        1 MOL      0.059220
     68 H28         3.7590    4.6630   -0.0220 h1        1 MOL      0.059220
     69 N8          2.2520    6.7380   -0.5260 n         1 MOL     -0.473127
     70 C22         0.9960    7.5730   -0.7690 c3        1 MOL     -0.233240
     71 C23        -0.3290    6.8400   -0.3330 c         1 MOL      0.481026
     72 O13        -1.4520    7.3760   -0.5110 o         1 MOL     -0.585171
     73 C24         1.1370    9.0510   -0.3760 c3        1 MOL      0.436774
     74 C25         1.5470    9.3350    1.0770 c3        1 MOL     -0.309797
     75 O14         2.0800    9.5960   -1.2450 oh        1 MOL     -0.609559
     76 H29         2.6950    6.8120    0.3880 hn        1 MOL      0.272597
     77 H30         0.8860    7.4740   -1.8480 h1        1 MOL      0.170856
     78 H31         0.2760    9.6830   -0.5960 h1        1 MOL      0.047863
     79 H32         2.8790    9.0780   -1.1470 ho        1 MOL      0.360771
     80 H33         0.7360    9.0230    1.7280 hc        1 MOL      0.074639
     81 H34         2.3970    8.7170    1.3680 hc        1 MOL      0.074639
     82 H35         1.8430   10.3820    1.1420 hc        1 MOL      0.074639
     83 N9         -0.2910    5.5890    0.0570 n         1 MOL     -0.126225
     84 C26        -1.2940    4.6430    0.4730 c3        1 MOL     -0.004961
     85 C27        -1.1370    3.2200   -0.1150 c         1 MOL      0.368389
     86 O15        -0.0580    2.9590   -0.6380 o         1 MOL     -0.400068
     87 C28        -1.5270    4.6270    2.0050 c3        1 MOL      0.074049
     88 C29        -0.2480    4.2720    2.7880 c3        1 MOL     -0.085706
     89 C30        -2.0290    6.0380    2.5090 c3        1 MOL     -0.239318
     90 C31        -0.4680    3.7050    4.1950 c3        1 MOL     -0.263631
     91 H36         0.5960    5.1050    0.0230 hn        1 MOL      0.155253
     92 H37        -2.2640    4.8550    0.0300 h1        1 MOL      0.058306
     93 H38        -2.2710    3.8730    2.2800 hc        1 MOL      0.031162
     94 H39         0.5210    5.0540    2.8000 hc        1 MOL      0.093102
     95 H40         0.2620    3.4640    2.2690 hc        1 MOL      0.093102
     96 H41        -2.3520    5.8730    3.5370 hc        1 MOL      0.052219
     97 H42        -1.2740    6.8180    2.4190 hc        1 MOL      0.052219
     98 H43        -2.9200    6.3100    1.9490 hc        1 MOL      0.052219
     99 H44        -1.1410    4.3640    4.7340 hc        1 MOL      0.075282
    100 H45        -0.9730    2.7620    3.9870 hc        1 MOL      0.075282
    101 H46         0.4540    3.6510    4.7920 hc        1 MOL      0.075282
    102 N10        -2.0460    2.2600    0.1550 n         1 MOL     -0.466212
    103 C32        -2.0680    0.8780   -0.3550 c3        1 MOL      0.154085
    104 C33        -3.5440    0.3270   -0.5430 c         1 MOL      0.470445
    105 O16        -3.8190   -0.8980   -0.5430 o         1 MOL     -0.435375
    106 C34        -1.2210   -0.0020    0.5690 c3        1 MOL     -0.301468
    107 C35        -1.0800   -1.4180    0.0620 c         1 MOL      0.599070
    108 O17        -1.2410   -1.5820   -1.1180 o         1 MOL     -0.687534
    109 O18        -0.6350   -2.3850    0.7990 o         1 MOL     -0.687534
    110 H47        -2.9390    2.6390    0.4190 hn        1 MOL      0.256256
    111 H48        -1.6760    0.8280   -1.3710 h1        1 MOL      0.077161
    112 H49        -1.6510   -0.0260    1.5670 hc        1 MOL      0.120816
    113 H50        -0.2460    0.4800    0.5270 hc        1 MOL      0.120816
    114 N11        -4.5990    1.1580   -0.7130 n         1 MOL     -0.473508
    115 C36        -5.9410    0.7250   -1.0040 c3        1 MOL      0.272615
    116 C37        -6.7110   -0.0260    0.0360 c         1 MOL      0.156680
    117 O19        -6.8050    0.4580    1.1110 o         1 MOL     -0.389252
    118 C38        -6.8110    1.9180   -1.4770 c3        1 MOL     -0.225689
    119 C39        -8.2890    1.7770   -1.7630 ca        1 MOL      0.138664
    120 C40        -8.6780    1.2440   -3.0530 ca        1 MOL     -0.170218
    121 C41        -9.2570    2.2890   -0.9150 ca        1 MOL     -0.170218
    122 C42       -10.0530    1.2170   -3.3940 ca        1 MOL     -0.137727
    123 C43       -10.6300    2.0910   -1.2520 ca        1 MOL     -0.137727
    124 C44       -10.9660    1.5780   -2.4260 ca        1 MOL     -0.045139
    125 H51        -4.4290    2.1580   -0.6950 hn        1 MOL      0.253263
    126 H52        -5.8560    0.1100   -1.9070 h1        1 MOL      0.007024
    127 H53        -6.3110    2.5590   -2.2160 hc        1 MOL      0.078107
    128 H54        -6.7370    2.5270   -0.5790 hc        1 MOL      0.078107
    129 H55        -7.8510    0.9000   -3.6520 ha        1 MOL      0.132680
    130 H56        -9.0370    2.5800    0.1050 ha        1 MOL      0.132680
    131 H57       -10.5090    0.7240   -4.2420 ha        1 MOL      0.113606
    132 H58       -11.4150    2.3640   -0.5730 ha        1 MOL      0.113606
    133 H59       -12.0150    1.3960   -2.6190 ha        1 MOL      0.077885
    134 N12        -7.3740   -1.1930   -0.3660 n         1 MOL      0.016731
    135 C45        -8.0920   -1.9520    0.6350 c3        1 MOL      0.037908
    136 C46        -7.1840   -2.6390    1.7140 c         1 MOL      0.210487
    137 O20        -7.6020   -3.0400    2.8220 o         1 MOL     -0.527124
    138 C47        -8.8940   -3.0550   -0.0680 c3        1 MOL     -0.045739
    139 C48        -8.7350   -2.7390   -1.5120 c3        1 MOL     -0.177420
    140 C49        -7.4530   -1.8830   -1.5730 c3        1 MOL      0.071228
    141 H60        -8.7250   -1.2120    1.1210 h1        1 MOL      0.053542
    142 H61        -8.4880   -4.0260    0.2330 hc        1 MOL      0.055544
    143 H62        -9.9310   -3.0800    0.2700 hc        1 MOL      0.055544
    144 H63        -8.5590   -3.6980   -2.0170 hc        1 MOL      0.058610
    145 H64        -9.5450   -2.1690   -1.9620 hc        1 MOL      0.058610
    146 H65        -6.5600   -2.5130   -1.5820 h1        1 MOL      0.003303
    147 H66        -7.4780   -1.2740   -2.4770 h1        1 MOL      0.003303
    148 N13        -5.9560   -2.6820    1.4710 n         1 MOL     -0.047241
    149 C50        -4.9220   -2.9920    2.5320 c3        1 MOL     -0.225269
    150 C51        -4.7330   -1.8590    3.6040 c         1 MOL      0.448977
    151 O21        -4.2170   -2.1300    4.7080 o         1 MOL     -0.531491
    152 C52        -3.6210   -3.3870    1.7860 c3        1 MOL      0.205856
    153 C53        -3.6870   -4.8020    1.2680 c3        1 MOL     -0.095513
    154 C54        -2.4750   -5.2060    0.5110 c         1 MOL      0.770227
    155 O22        -2.2770   -4.6600   -0.5720 o         1 MOL     -0.794855
    156 O23        -1.6400   -6.0260    0.9080 o         1 MOL     -0.794855
    157 H67        -5.5740   -2.3160    0.6020 hn        1 MOL      0.245989
    158 H68        -5.1900   -3.8750    3.1130 h1        1 MOL      0.142691
    159 H69        -2.7870   -3.3170    2.4930 hc        1 MOL     -0.024118
    160 H70        -3.5050   -2.7800    0.9000 hc        1 MOL     -0.024118
    161 H71        -4.5720   -4.8710    0.6330 hc        1 MOL     -0.015990
    162 H72        -3.7830   -5.3920    2.1770 hc        1 MOL     -0.015990
    163 N14        -5.1730   -0.6270    3.2950 n         1 MOL     -0.070330
    164 C55        -5.2200    0.4910    4.2060 c3        1 MOL     -0.269464
    165 H73        -4.4250    0.3900    4.9450 h1        1 MOL      0.097686
    166 H74        -5.0840    1.4190    3.6510 h1        1 MOL      0.097686
    167 H75        -6.1850    0.5080    4.7120 h1        1 MOL      0.097686
    168 H76        -5.5750   -0.4480    2.3820 hn        1 MOL      0.110879
    169 Ca1         0.0330   -3.9020   -1.2130 Ca        1 MOL      1.782219
    170 O24        -0.2580   -6.5710   -2.4000 oh        1 MOL     -0.858951
    171 O25         1.2500   -4.5500    1.1710 oh        1 MOL     -0.858951
    172 H77         0.3450   -7.1820   -2.8140 ho        1 MOL      0.420780
    173 H78         0.7800   -5.2980    1.5610 ho        1 MOL      0.420780
    174 H79        -0.5040   -6.9850   -1.5800 ho        1 MOL      0.420780
    175 H80         1.6300   -4.0930    1.9180 ho        1 MOL      0.420780
    176 O26        -0.1100   -3.3800   -3.8420 oh        1 MOL     -0.858951
    177 H81        -0.8200   -3.2340   -4.4610 ho        1 MOL      0.420780
    178 H82         0.6420   -3.6090   -4.3900 ho        1 MOL      0.420780
    179 O27         1.6170   -1.7670   -1.6080 oh        1 MOL     -0.858951
    180 H83         1.2400   -1.2440   -2.3160 ho        1 MOL      0.420780
    181 H84         2.0670   -1.1260   -1.0480 ho        1 MOL      0.420780
@<TRIPOS>BOND
     1    1    2 1   
     2    1    4 1   
     3    1    5 1   
     4    1    6 1   
     5    2    3 2   
     6    2    7 1   
     7    7    8 1   
     8    7   15 1   
     9    8    9 1   
    10    8   11 1   
    11    8   16 1   
    12    9   10 2   
    13    9   19 1   
    14   11   12 1   
    15   11   17 1   
    16   11   18 1   
    17   12   13 1   
    18   12   14 1   
    19   19   20 1   
    20   19   24 1   
    21   20   21 1   
    22   20   23 1   
    23   20   25 1   
    24   21   22 2   
    25   21   29 1   
    26   23   26 1   
    27   23   27 1   
    28   23   28 1   
    29   29   30 1   
    30   29   37 1   
    31   30   31 1   
    32   30   33 1   
    33   30   38 1   
    34   31   32 2   
    35   31   41 1   
    36   33   34 1   
    37   33   39 1   
    38   33   40 1   
    39   34   35 1   
    40   34   36 1   
    41   41   42 1   
    42   41   45 1   
    43   42   43 1   
    44   42   46 1   
    45   42   47 1   
    46   43   44 2   
    47   43   48 1   
    48   48   49 1   
    49   48   56 1   
    50   49   50 1   
    51   49   52 1   
    52   49   57 1   
    53   50   51 2   
    54   50   62 1   
    55   52   53 1   
    56   52   58 1   
    57   52   59 1   
    58   53   54 1   
    59   53   55 2   
    60   54   60 1   
    61   54   61 1   
    62   62   63 1   
    63   62   66 1   
    64   63   64 1   
    65   63   67 1   
    66   63   68 1   
    67   64   65 2   
    68   64   69 1   
    69   69   70 1   
    70   69   76 1   
    71   70   71 1   
    72   70   73 1   
    73   70   77 1   
    74   71   72 2   
    75   71   83 1   
    76   73   74 1   
    77   73   75 1   
    78   73   78 1   
    79   74   80 1   
    80   74   81 1   
    81   74   82 1   
    82   75   79 1   
    83   83   84 1   
    84   83   91 1   
    85   84   85 1   
    86   84   87 1   
    87   84   92 1   
    88   85   86 2   
    89   85  102 1   
    90   87   88 1   
    91   87   89 1   
    92   87   93 1   
    93   88   90 1   
    94   88   94 1   
    95   88   95 1   
    96   89   96 1   
    97   89   97 1   
    98   89   98 1   
    99   90   99 1   
   100   90  100 1   
   101   90  101 1   
   102  102  103 1   
   103  102  110 1   
   104  103  104 1   
   105  103  106 1   
   106  103  111 1   
   107  104  105 2   
   108  104  114 1   
   109  106  107 1   
   110  106  112 1   
   111  106  113 1   
   112  107  108 1   
   113  107  109 1   
   114  114  115 1   
   115  114  125 1   
   116  115  116 1   
   117  115  118 1   
   118  115  126 1   
   119  116  117 2   
   120  116  134 1   
   121  118  119 1   
   122  118  127 1   
   123  118  128 1   
   124  119  120 ar  
   125  119  121 ar  
   126  120  122 ar  
   127  120  129 1   
   128  121  123 ar  
   129  121  130 1   
   130  122  124 ar  
   131  122  131 1   
   132  123  124 ar  
   133  123  132 1   
   134  124  133 1   
   135  134  135 1   
   136  134  140 1   
   137  135  136 1   
   138  135  138 1   
   139  135  141 1   
   140  136  137 2   
   141  136  148 1   
   142  138  139 1   
   143  138  142 1   
   144  138  143 1   
   145  139  140 1   
   146  139  144 1   
   147  139  145 1   
   148  140  146 1   
   149  140  147 1   
   150  148  149 1   
   151  148  157 1   
   152  149  150 1   
   153  149  152 1   
   154  149  158 1   
   155  150  151 2   
   156  150  163 1   
   157  152  153 1   
   158  152  159 1   
   159  152  160 1   
   160  153  154 1   
   161  153  161 1   
   162  153  162 1   
   163  154  155 1   
   164  154  156 1   
   165  163  164 1   
   166  163  168 1   
   167  164  165 1   
   168  164  166 1   
   169  164  167 1   
   170  170  172 1   
   171  170  174 1   
   172  171  173 1   
   173  171  175 1   
   174  176  177 1   
   175  176  178 1   
   176  179  180 1   
   177  179  181 1   
@<TRIPOS>SUBSTRUCTURE
     1 MOL         1 TEMP              0 ****  ****    0 ROOT
