@<TRIPOS>MOLECULE
MOL
  178   175     1     0     0
SMALL
resp


@<TRIPOS>ATOM
      1 C1          0.8680    6.1780   -1.9690 c3        1 MOL     -0.371848
      2 C2          2.2210    5.9760   -1.3850 c         1 MOL      0.745276
      3 O1          2.4510    6.5020   -0.3040 o         1 MOL     -0.597785
      4 H1          0.3150    6.8950   -1.3620 hc        1 MOL      0.086065
      5 H2          0.9650    6.5610   -2.9850 hc        1 MOL      0.086065
      6 H3          0.3340    5.2290   -1.9880 hc        1 MOL      0.086065
      7 N1          3.1690    5.4520   -2.1430 n         1 MOL     -0.674108
      8 C3          4.5250    5.3050   -1.6070 c3        1 MOL      0.381104
      9 C4          4.5650    4.0720   -0.6690 c         1 MOL      0.559730
     10 O2          3.7480    3.1250   -0.7250 o         1 MOL     -0.662902
     11 C5          5.5400    5.1200   -2.7020 c3        1 MOL     -0.276555
     12 C6          6.9840    5.0790   -2.1520 c         1 MOL      0.747337
     13 O3          7.6860    4.0800   -2.2980 o         1 MOL     -0.734189
     14 O4          7.2970    6.0670   -1.5000 o         1 MOL     -0.734189
     15 H4          2.9850    4.9480   -3.0060 hn        1 MOL      0.326315
     16 H5          4.8040    6.1710   -0.9930 h1        1 MOL      0.002999
     17 H6          5.4860    5.9920   -3.3620 hc        1 MOL      0.018551
     18 H7          5.3060    4.2550   -3.3250 hc        1 MOL      0.018551
     19 N2          5.5190    4.0540    0.2360 n         1 MOL     -0.550792
     20 C7          5.6400    3.0360    1.2870 c3        1 MOL      0.530045
     21 C8          4.4230    3.0530    2.2680 c         1 MOL      0.358915
     22 O5          3.6760    3.9910    2.2610 o         1 MOL     -0.533148
     23 C9          6.9140    3.4310    2.0680 c3        1 MOL     -0.243491
     24 H8          5.9580    4.9650    0.3080 hn        1 MOL      0.266492
     25 H9          5.8140    2.0600    0.8450 h1        1 MOL      0.063044
     26 H10         6.8610    3.0590    3.0970 hc        1 MOL      0.047082
     27 H11         7.7560    2.9170    1.6090 hc        1 MOL      0.047082
     28 H12         7.0810    4.4850    2.2730 hc        1 MOL      0.047082
     29 N3          4.2110    1.9580    2.9990 n         1 MOL     -0.272401
     30 C10         4.9430    0.7650    3.3520 c3        1 MOL      0.014738
     31 C11         5.2180   -0.1940    2.2140 c         1 MOL      0.180538
     32 O6          4.5140   -0.2550    1.2210 o         1 MOL     -0.428313
     33 C12         4.0230    0.0170    4.3660 c3        1 MOL     -0.140940
     34 C13         2.5780   -0.2190    3.8840 c         1 MOL      0.793737
     35 O7          1.6980    0.6210    4.2220 o         1 MOL     -0.780231
     36 O8          2.2640   -1.1260    3.0630 o         1 MOL     -0.780231
     37 H13         3.4880    2.0360    3.6970 hn        1 MOL      0.238440
     38 H14         5.8580    1.0470    3.8730 h1        1 MOL      0.030918
     39 H15         3.9950    0.6250    5.2640 hc        1 MOL      0.049024
     40 H16         4.4590   -0.9380    4.6570 hc        1 MOL      0.049024
     41 N4          6.2780   -0.9680    2.4340 n         1 MOL     -0.282461
     42 C14         6.9300   -1.7560    1.3910 c3        1 MOL     -0.107944
     43 C15         7.5810   -0.9530    0.2530 c         1 MOL      0.511895
     44 O9          7.9400    0.2420    0.3800 o         1 MOL     -0.510716
     45 H17         6.6880   -0.8960    3.3490 hn        1 MOL      0.283357
     46 H18         6.1910   -2.4760    1.0420 h1        1 MOL      0.110898
     47 H19         7.7390   -2.3400    1.8050 h1        1 MOL      0.110898
     48 N5          7.7200   -1.4680   -0.9590 n         1 MOL     -0.425135
     49 C16         7.5290   -2.8030   -1.4410 c3        1 MOL      0.060659
     50 C17         6.1560   -3.0870   -2.0930 c         1 MOL      0.474625
     51 O10         5.7770   -4.2560   -2.2660 o         1 MOL     -0.452328
     52 C18         8.6950   -3.1830   -2.4160 c3        1 MOL     -0.247744
     53 C19         8.9060   -4.6990   -2.6240 c         1 MOL      0.562056
     54 N6          9.4370   -5.4300   -1.6340 n         1 MOL     -0.789009
     55 O11         8.4210   -5.2830   -3.5800 o         1 MOL     -0.499708
     56 H20         8.3730   -0.9770   -1.5480 hn        1 MOL      0.295025
     57 H21         7.5090   -3.5200   -0.6200 h1        1 MOL      0.049879
     58 H22         9.5900   -2.6850   -2.0590 hc        1 MOL      0.093998
     59 H23         8.4820   -2.7610   -3.4020 hc        1 MOL      0.093998
     60 H24         9.8920   -5.0460   -0.8210 hn        1 MOL      0.369182
     61 H25         9.3730   -6.4180   -1.8360 hn        1 MOL      0.369182
     62 N7          5.4720   -2.0100   -2.5740 n         1 MOL     -0.282135
     63 C20         4.2680   -2.0910   -3.3200 c3        1 MOL     -0.275542
     64 C21         3.0550   -2.5760   -2.5360 c         1 MOL      0.656283
     65 O12         2.0970   -2.8990   -3.1400 o         1 MOL     -0.583969
     66 H26         5.8640   -1.0910   -2.4430 hn        1 MOL      0.275254
     67 H27         4.4030   -2.7930   -4.1500 h1        1 MOL      0.136627
     68 H28         4.1590   -1.1200   -3.8140 h1        1 MOL      0.136627
     69 N8          3.0960   -2.6460   -1.2120 n         1 MOL     -0.388417
     70 C22         2.1420   -3.3740   -0.3620 c3        1 MOL     -0.130430
     71 C23         0.8530   -2.6650   -0.0580 c         1 MOL      0.949272
     72 O13         0.7800   -1.4920    0.4610 o         1 MOL     -0.782144
     73 C24         2.7900   -3.9370    0.8470 c3        1 MOL      0.206703
     74 C25         3.7930   -5.0140    0.5740 c3        1 MOL     -0.008605
     75 O14         3.4870   -2.9800    1.6310 oh        1 MOL     -0.630062
     76 H29         4.0040   -2.4020   -0.8560 hn        1 MOL      0.231229
     77 H30         1.7670   -4.2740   -0.8520 h1        1 MOL      0.081936
     78 H31         2.0570   -4.4970    1.4310 h1        1 MOL      0.024766
     79 H32         2.8630   -2.3680    2.0200 ho        1 MOL      0.518250
     80 H33         3.3290   -5.8660    0.0710 hc        1 MOL     -0.002257
     81 H34         4.6340   -4.5850    0.0430 hc        1 MOL     -0.002257
     82 H35         4.1620   -5.4630    1.4880 hc        1 MOL     -0.002257
     83 N9         -0.1540   -3.3790   -0.4390 n         1 MOL     -0.621983
     84 C26        -1.5800   -3.0140   -0.5120 c3        1 MOL      0.009601
     85 C27        -2.2690   -3.1920    0.8480 c         1 MOL      0.202978
     86 O15        -1.8940   -4.1140    1.6310 o         1 MOL     -0.468349
     87 C28        -2.3240   -3.7110   -1.5710 c3        1 MOL      0.322801
     88 C29        -3.8450   -3.3450   -1.7950 c3        1 MOL      0.053187
     89 C30        -1.6520   -3.6760   -2.9880 c3        1 MOL     -0.298855
     90 C31        -4.5430   -4.0990   -3.0000 c3        1 MOL     -0.240991
     91 H36        -0.0180   -4.2830   -0.8490 hn        1 MOL      0.301863
     92 H37        -1.7250   -1.9640   -0.7580 h1        1 MOL      0.191011
     93 H38        -2.2580   -4.7740   -1.3250 hc        1 MOL     -0.047872
     94 H39        -3.8270   -2.2760   -2.0290 hc        1 MOL     -0.027614
     95 H40        -4.3970   -3.4690   -0.8590 hc        1 MOL     -0.027614
     96 H41        -0.6170   -4.0010   -2.9270 hc        1 MOL      0.063493
     97 H42        -2.0840   -4.3940   -3.6780 hc        1 MOL      0.063493
     98 H43        -1.5920   -2.6140   -3.2510 hc        1 MOL      0.063493
     99 H44        -5.6140   -4.0600   -2.8440 hc        1 MOL      0.051226
    100 H45        -4.2440   -3.5280   -3.8810 hc        1 MOL      0.051226
    101 H46        -4.1270   -5.1070   -3.0410 hc        1 MOL      0.051226
    102 N10        -3.2230   -2.3140    1.2030 n         1 MOL     -0.063187
    103 C32        -4.0760   -2.4640    2.4060 c3        1 MOL     -0.022256
    104 C33        -5.5190   -2.0510    2.1590 c         1 MOL      0.567951
    105 O16        -6.4080   -2.4640    2.9170 o         1 MOL     -0.567392
    106 C34        -3.5400   -1.7290    3.6240 c3        1 MOL      0.071520
    107 C35        -2.1540   -1.9110    4.1110 c         1 MOL      0.714057
    108 O17        -2.0540   -2.3600    5.2320 o         1 MOL     -0.707308
    109 O18        -1.2000   -1.4930    3.4320 o         1 MOL     -0.707308
    110 H47        -3.2480   -1.4330    0.7010 hn        1 MOL      0.059161
    111 H48        -4.1110   -3.5010    2.7330 h1        1 MOL      0.072150
    112 H49        -4.2060   -1.8620    4.4820 hc        1 MOL     -0.046560
    113 H50        -3.5780   -0.6470    3.4290 hc        1 MOL     -0.046560
    114 N11        -5.8670   -1.2860    1.0430 n         1 MOL     -0.647553
    115 C36        -7.2270   -0.6410    0.8230 c3        1 MOL      0.434587
    116 C37        -7.0900    0.7940    0.1770 c         1 MOL      0.216866
    117 O19        -7.6020    0.9660   -0.9120 o         1 MOL     -0.462962
    118 C38        -8.0790   -1.6350   -0.0650 c3        1 MOL     -0.394985
    119 C39        -9.5010   -1.2790   -0.3620 ca        1 MOL      0.233461
    120 C40       -10.2390   -1.9680   -1.2970 ca        1 MOL     -0.214807
    121 C41       -10.2180   -0.4780    0.5690 ca        1 MOL     -0.214807
    122 C42       -11.6340   -1.7690   -1.4170 ca        1 MOL     -0.070719
    123 C43       -11.5760   -0.1730    0.4250 ca        1 MOL     -0.070719
    124 C44       -12.3370   -0.9150   -0.5140 ca        1 MOL     -0.205285
    125 H51        -5.0840   -0.8240    0.5980 hn        1 MOL      0.301112
    126 H52        -7.6840   -0.5280    1.8010 h1        1 MOL      0.003598
    127 H53        -8.0590   -2.6350    0.3640 hc        1 MOL      0.147403
    128 H54        -7.6010   -1.7370   -1.0370 hc        1 MOL      0.147403
    129 H55        -9.6720   -2.6940   -1.8640 ha        1 MOL      0.113908
    130 H56        -9.6790    0.0560    1.3450 ha        1 MOL      0.113908
    131 H57       -12.2410   -2.3330   -2.1040 ha        1 MOL      0.094505
    132 H58       -11.9720    0.5750    1.0880 ha        1 MOL      0.094505
    133 H59       -13.3880   -0.6890   -0.5800 ha        1 MOL      0.117809
    134 N12        -6.3700    1.7790    0.8040 n         1 MOL      0.011571
    135 C45        -6.3540    3.1360    0.0940 c3        1 MOL     -0.052720
    136 C46        -5.6960    3.2580   -1.3020 c         1 MOL      0.240541
    137 O20        -5.9710    4.2000   -2.0380 o         1 MOL     -0.462391
    138 C47        -5.4790    3.9890    1.1430 c3        1 MOL     -0.059707
    139 C48        -5.6680    3.3650    2.4670 c3        1 MOL      0.131579
    140 C49        -5.7310    1.8620    2.1130 c3        1 MOL     -0.341656
    141 H60        -7.3810    3.5020    0.0790 h1        1 MOL      0.107437
    142 H61        -4.4100    4.0120    0.9280 hc        1 MOL      0.043100
    143 H62        -5.8750    5.0040    1.2320 hc        1 MOL      0.043100
    144 H63        -4.9060    3.5870    3.2160 hc        1 MOL     -0.008869
    145 H64        -6.6190    3.7810    2.7950 hc        1 MOL     -0.008869
    146 H65        -4.7200    1.5010    1.9030 h1        1 MOL      0.149479
    147 H66        -6.3150    1.2840    2.8240 h1        1 MOL      0.149479
    148 N13        -4.7980    2.2880   -1.6090 n         1 MOL     -0.096831
    149 C50        -4.2270    2.1460   -2.9790 c3        1 MOL     -0.297327
    150 C51        -5.3400    1.8780   -4.0570 c         1 MOL      0.570133
    151 O21        -5.3700    2.4500   -5.1030 o         1 MOL     -0.538258
    152 C52        -3.2270    0.9480   -2.9470 c3        1 MOL      0.182424
    153 C53        -2.1460    0.9650   -1.8240 c3        1 MOL     -0.043604
    154 C54        -2.6650    0.5220   -0.4260 c         1 MOL      0.521706
    155 O22        -1.8840    0.5710    0.5380 o         1 MOL     -0.675137
    156 O23        -3.8520    0.1120   -0.2760 o         1 MOL     -0.675137
    157 H67        -4.5810    1.5200   -0.9920 hn        1 MOL      0.300381
    158 H68        -3.7370    3.0660   -3.3030 h1        1 MOL      0.131110
    159 H69        -2.6040    1.1080   -3.8320 hc        1 MOL     -0.048814
    160 H70        -3.8010    0.0230   -3.0660 hc        1 MOL     -0.048814
    161 H71        -1.7750    1.9880   -1.7120 hc        1 MOL      0.023929
    162 H72        -1.3050    0.2910   -1.9920 hc        1 MOL      0.023929
    163 N14        -6.2830    0.9800   -3.6540 n         1 MOL     -0.194581
    164 C55        -7.3760    0.7480   -4.5640 c3        1 MOL     -0.285255
    165 H73        -8.2410    1.3300   -4.2480 h1        1 MOL      0.100465
    166 H74        -7.0820    1.0530   -5.5700 h1        1 MOL      0.100465
    167 H75        -7.6310   -0.3110   -4.5650 h1        1 MOL      0.100465
    168 H76        -6.3210    0.6390   -2.6990 hn        1 MOL      0.237375
    169 Ca1        -0.0040    0.4450    2.1800 Ca        1 MOL      1.758308
    170 O24         2.2720    1.0100    0.8800 oh        1 MOL     -0.869914
    171 H77         2.9980    0.3920    0.9120 ho        1 MOL      0.429058
    172 H78         2.6050    1.7590    0.3950 ho        1 MOL      0.429058
    173 O25        -1.3690    1.6680    4.0920 oh        1 MOL     -0.869914
    174 H79        -2.1680    1.5720    4.6210 ho        1 MOL      0.429058
    175 H80        -0.7540    2.1080    4.6720 ho        1 MOL      0.429058
    176 O26         0.6120    3.0510    2.2960 oh        1 MOL     -0.869914
    177 H81         0.2650    3.9300    2.2110 ho        1 MOL      0.429058
    178 H82         1.5610    3.1450    2.1620 ho        1 MOL      0.429058
@<TRIPOS>BOND
     1    1    2 1   
     2    1    4 1   
     3    1    5 1   
     4    1    6 1   
     5    2    3 2   
     6    2    7 1   
     7    7    8 1   
     8    7   15 1   
     9    8    9 1   
    10    8   11 1   
    11    8   16 1   
    12    9   10 2   
    13    9   19 1   
    14   11   12 1   
    15   11   17 1   
    16   11   18 1   
    17   12   13 1   
    18   12   14 1   
    19   19   20 1   
    20   19   24 1   
    21   20   21 1   
    22   20   23 1   
    23   20   25 1   
    24   21   22 2   
    25   21   29 1   
    26   23   26 1   
    27   23   27 1   
    28   23   28 1   
    29   29   30 1   
    30   29   37 1   
    31   30   31 1   
    32   30   33 1   
    33   30   38 1   
    34   31   32 2   
    35   31   41 1   
    36   33   34 1   
    37   33   39 1   
    38   33   40 1   
    39   34   35 1   
    40   34   36 1   
    41   41   42 1   
    42   41   45 1   
    43   42   43 1   
    44   42   46 1   
    45   42   47 1   
    46   43   44 2   
    47   43   48 1   
    48   48   49 1   
    49   48   56 1   
    50   49   50 1   
    51   49   52 1   
    52   49   57 1   
    53   50   51 2   
    54   50   62 1   
    55   52   53 1   
    56   52   58 1   
    57   52   59 1   
    58   53   54 1   
    59   53   55 2   
    60   54   60 1   
    61   54   61 1   
    62   62   63 1   
    63   62   66 1   
    64   63   64 1   
    65   63   67 1   
    66   63   68 1   
    67   64   65 2   
    68   64   69 1   
    69   69   70 1   
    70   69   76 1   
    71   70   71 1   
    72   70   73 1   
    73   70   77 1   
    74   71   72 2   
    75   71   83 1   
    76   73   74 1   
    77   73   75 1   
    78   73   78 1   
    79   74   80 1   
    80   74   81 1   
    81   74   82 1   
    82   75   79 1   
    83   83   84 1   
    84   83   91 1   
    85   84   85 1   
    86   84   87 1   
    87   84   92 1   
    88   85   86 2   
    89   85  102 1   
    90   87   88 1   
    91   87   89 1   
    92   87   93 1   
    93   88   90 1   
    94   88   94 1   
    95   88   95 1   
    96   89   96 1   
    97   89   97 1   
    98   89   98 1   
    99   90   99 1   
   100   90  100 1   
   101   90  101 1   
   102  102  103 1   
   103  102  110 1   
   104  103  104 1   
   105  103  106 1   
   106  103  111 1   
   107  104  105 2   
   108  104  114 1   
   109  106  107 1   
   110  106  112 1   
   111  106  113 1   
   112  107  108 1   
   113  107  109 1   
   114  114  115 1   
   115  114  125 1   
   116  115  116 1   
   117  115  118 1   
   118  115  126 1   
   119  116  117 2   
   120  116  134 1   
   121  118  119 1   
   122  118  127 1   
   123  118  128 1   
   124  119  120 ar  
   125  119  121 ar  
   126  120  122 ar  
   127  120  129 1   
   128  121  123 ar  
   129  121  130 1   
   130  122  124 ar  
   131  122  131 1   
   132  123  124 ar  
   133  123  132 1   
   134  124  133 1   
   135  134  135 1   
   136  134  140 1   
   137  135  136 1   
   138  135  138 1   
   139  135  141 1   
   140  136  137 2   
   141  136  148 1   
   142  138  139 1   
   143  138  142 1   
   144  138  143 1   
   145  139  140 1   
   146  139  144 1   
   147  139  145 1   
   148  140  146 1   
   149  140  147 1   
   150  148  149 1   
   151  148  157 1   
   152  149  150 1   
   153  149  152 1   
   154  149  158 1   
   155  150  151 2   
   156  150  163 1   
   157  152  153 1   
   158  152  159 1   
   159  152  160 1   
   160  153  154 1   
   161  153  161 1   
   162  153  162 1   
   163  154  155 1   
   164  154  156 1   
   165  163  164 1   
   166  163  168 1   
   167  164  165 1   
   168  164  166 1   
   169  164  167 1   
   170  170  171 1   
   171  170  172 1   
   172  173  174 1   
   173  173  175 1   
   174  176  177 1   
   175  176  178 1   
@<TRIPOS>SUBSTRUCTURE
     1 MOL         1 TEMP              0 ****  ****    0 ROOT
