@<TRIPOS>MOLECULE
MOL
  181   177     1     0     0
SMALL
resp


@<TRIPOS>ATOM
      1 C1         -1.8070   -5.4570   -2.4890 c3        1 MOL     -0.352285
      2 C2         -3.1910   -5.9170   -2.0450 c         1 MOL      0.642578
      3 O1         -3.3670   -6.7690   -1.1460 o         1 MOL     -0.576226
      4 H1         -1.1490   -5.4020   -1.6220 hc        1 MOL      0.091295
      5 H2         -1.4010   -6.1670   -3.2090 hc        1 MOL      0.091295
      6 H3         -1.8810   -4.4720   -2.9500 hc        1 MOL      0.091295
      7 N1         -4.2860   -5.3320   -2.6360 n         1 MOL     -0.541360
      8 C3         -5.7000   -5.3030   -2.0120 c3        1 MOL      0.087344
      9 C4         -5.8740   -4.2530   -0.8980 c         1 MOL      0.642696
     10 O2         -5.8600   -3.0380   -1.1510 o         1 MOL     -0.542545
     11 C5         -6.6890   -5.0450   -3.1620 c3        1 MOL     -0.201932
     12 C6         -8.1160   -5.2390   -2.6860 c         1 MOL      0.634348
     13 O3         -8.4760   -6.3510   -2.2270 o         1 MOL     -0.709639
     14 O4         -8.9280   -4.2440   -2.6030 o         1 MOL     -0.709639
     15 H4         -4.0860   -4.6850   -3.3910 hn        1 MOL      0.295075
     16 H5         -5.9730   -6.2620   -1.5660 h1        1 MOL      0.044855
     17 H6         -6.4750   -5.6630   -4.0310 hc        1 MOL      0.030343
     18 H7         -6.5570   -4.0030   -3.4880 hc        1 MOL      0.030343
     19 N2         -5.9730   -4.6280    0.3580 n         1 MOL     -0.498177
     20 C7         -5.8800   -3.7950    1.4970 c3        1 MOL      0.391673
     21 C8         -4.4720   -3.2050    1.7110 c         1 MOL      0.359753
     22 O5         -3.4740   -3.8540    1.3370 o         1 MOL     -0.559752
     23 C9         -6.3960   -4.6450    2.6930 c3        1 MOL     -0.452897
     24 H8         -5.8400   -5.6230    0.4730 hn        1 MOL      0.279444
     25 H9         -6.5330   -2.9560    1.2500 h1        1 MOL      0.010249
     26 H10        -7.4110   -4.9920    2.5210 hc        1 MOL      0.115825
     27 H11        -5.8240   -5.5440    2.9220 hc        1 MOL      0.115825
     28 H12        -6.3570   -3.9600    3.5450 hc        1 MOL      0.115825
     29 N3         -4.1890   -2.0730    2.3610 n         1 MOL     -0.203033
     30 C10        -5.1100   -1.0550    2.7760 c3        1 MOL     -0.192252
     31 C11        -5.5710   -0.1350    1.6920 c         1 MOL      0.714067
     32 O6         -4.8190    0.3570    0.8970 o         1 MOL     -0.529961
     33 C12        -4.7210   -0.2510    4.0150 c3        1 MOL     -0.147862
     34 C13        -3.2150   -0.0160    4.3070 c         1 MOL      0.729087
     35 O7         -2.3160   -0.4060    3.4580 o         1 MOL     -0.703788
     36 O8         -2.9860    0.6540    5.3160 o         1 MOL     -0.703788
     37 H13        -3.2000   -1.8620    2.3020 hn        1 MOL      0.231878
     38 H14        -6.0410   -1.6070    2.8980 h1        1 MOL      0.042246
     39 H15        -5.0930   -0.7530    4.9040 hc        1 MOL      0.048333
     40 H16        -5.1910    0.7280    3.8810 hc        1 MOL      0.048333
     41 N4         -6.9000    0.2450    1.7660 n         1 MOL     -0.439437
     42 C14        -7.5090    1.3350    1.0350 c3        1 MOL     -0.216213
     43 C15        -7.4710    0.9870   -0.3990 c         1 MOL      0.596505
     44 O9         -8.0580   -0.0120   -0.7840 o         1 MOL     -0.500316
     45 H17        -7.4360   -0.1640    2.5190 hn        1 MOL      0.266215
     46 H18        -7.1860    2.2960    1.4280 h1        1 MOL      0.109047
     47 H19        -8.5770    1.1480    1.2080 h1        1 MOL      0.109047
     48 N5         -7.0050    1.8750   -1.2020 n         1 MOL     -0.452536
     49 C16        -6.3780    3.2220   -0.9470 c3        1 MOL     -0.070212
     50 C17        -5.6610    3.6160   -2.2450 c         1 MOL      0.653954
     51 O10        -6.1220    3.2360   -3.2860 o         1 MOL     -0.510491
     52 C18        -7.4700    4.3050   -0.6210 c3        1 MOL     -0.073499
     53 C19        -6.9430    5.6970   -0.2430 c         1 MOL      0.598080
     54 N6         -7.2760    6.3370    0.8960 n         1 MOL     -0.802879
     55 O11        -6.1680    6.2210   -1.0000 o         1 MOL     -0.536142
     56 H20        -7.0800    1.6000   -2.1770 hn        1 MOL      0.295743
     57 H21        -5.6530    3.1170   -0.1440 h1        1 MOL      0.092804
     58 H22        -7.9620    3.9340    0.2750 hc        1 MOL      0.039312
     59 H23        -8.1110    4.4310   -1.5010 hc        1 MOL      0.039312
     60 H24        -7.9820    5.9840    1.5190 hn        1 MOL      0.370428
     61 H25        -6.7790    7.2030    1.0300 hn        1 MOL      0.370428
     62 N7         -4.4970    4.2930   -2.1370 n         1 MOL     -0.422831
     63 C20        -3.6780    4.7970   -3.2460 c3        1 MOL     -0.189689
     64 C21        -2.2350    5.1630   -2.8380 c         1 MOL      0.623905
     65 O12        -1.6750    5.9820   -3.5540 o         1 MOL     -0.572377
     66 H26        -4.1300    4.4890   -1.2100 hn        1 MOL      0.285524
     67 H27        -4.1690    5.7070   -3.5740 h1        1 MOL      0.124680
     68 H28        -3.7620    4.0790   -4.0770 h1        1 MOL      0.124680
     69 N8         -1.6590    4.6870   -1.7510 n         1 MOL     -0.406348
     70 C22        -0.3160    5.1130   -1.2590 c3        1 MOL      0.035023
     71 C23         0.6470    3.9570   -1.0320 c         1 MOL      0.458180
     72 O13         0.2890    2.8370   -0.6250 o         1 MOL     -0.538525
     73 C24        -0.3920    5.9490   -0.0110 c3        1 MOL      0.548925
     74 C25        -1.3420    7.1170   -0.1020 c3        1 MOL     -0.428055
     75 O14        -0.9290    5.1750    0.9970 oh        1 MOL     -0.641328
     76 H29        -2.2060    4.1110   -1.1190 hn        1 MOL      0.234581
     77 H30         0.1880    5.8150   -1.9240 h1        1 MOL      0.025323
     78 H31         0.5400    6.4310    0.2650 h1        1 MOL     -0.051655
     79 H32        -0.2000    5.0460    1.6050 ho        1 MOL      0.403290
     80 H33        -2.3760    6.8860   -0.3460 hc        1 MOL      0.097043
     81 H34        -1.3110    7.6610    0.8440 hc        1 MOL      0.097043
     82 H35        -1.0910    7.7810   -0.9300 hc        1 MOL      0.097043
     83 N9          1.8850    4.3500   -1.2500 n         1 MOL     -0.340289
     84 C26         3.1720    3.5200   -1.1150 c3        1 MOL     -0.029277
     85 C27         3.7000    3.7300    0.2830 c         1 MOL      0.176153
     86 O15         3.9040    4.8400    0.8080 o         1 MOL     -0.525745
     87 C28         4.1340    3.7600   -2.2620 c3        1 MOL      0.059842
     88 C29         5.3740    2.7850   -2.1090 c3        1 MOL      0.209968
     89 C30         3.4430    3.5800   -3.5890 c3        1 MOL     -0.197840
     90 C31         6.5550    3.1540   -3.0180 c3        1 MOL     -0.190529
     91 H36         2.0230    5.2550   -1.6810 hn        1 MOL      0.255287
     92 H37         2.7700    2.5090   -1.2100 h1        1 MOL      0.187513
     93 H38         4.5860    4.7520   -2.2030 hc        1 MOL      0.022980
     94 H39         5.1700    1.7280   -2.3030 hc        1 MOL     -0.054999
     95 H40         5.7190    2.7210   -1.0710 hc        1 MOL     -0.054999
     96 H41         2.4820    4.0490   -3.8280 hc        1 MOL      0.050178
     97 H42         4.1580    3.8980   -4.3470 hc        1 MOL      0.050178
     98 H43         3.3670    2.5070   -3.7660 hc        1 MOL      0.050178
     99 H44         7.3440    2.4200   -2.9230 hc        1 MOL      0.032220
    100 H45         6.2140    3.2090   -4.0560 hc        1 MOL      0.032220
    101 H46         7.0000    4.1000   -2.7000 hc        1 MOL      0.032220
    102 N10         3.8020    2.6400    1.0240 n         1 MOL      0.170234
    103 C32         4.5500    2.5410    2.2170 c3        1 MOL      0.148692
    104 C33         5.6320    1.4090    2.1780 c         1 MOL      0.247128
    105 O16         6.5970    1.4760    2.9430 o         1 MOL     -0.526267
    106 C34         3.7280    2.5310    3.4700 c3        1 MOL     -0.200573
    107 C35         2.5170    1.6470    3.2420 c         1 MOL      0.823514
    108 O17         1.4520    2.1290    2.8070 o         1 MOL     -0.810340
    109 O18         2.5380    0.3940    3.4660 o         1 MOL     -0.810340
    110 H47         3.6990    1.8020    0.4720 hn        1 MOL      0.030966
    111 H48         5.1690    3.4330    2.3510 h1        1 MOL      0.047974
    112 H49         3.3860    3.5600    3.5930 hc        1 MOL      0.043470
    113 H50         4.3180    2.2150    4.3230 hc        1 MOL      0.043470
    114 N11         5.5720    0.4270    1.2920 n         1 MOL     -0.123879
    115 C36         6.6720   -0.5530    0.9580 c3        1 MOL      0.328009
    116 C37         6.1740   -1.9950    0.4980 c         1 MOL      0.241981
    117 O19         6.7120   -2.5520   -0.5120 o         1 MOL     -0.438096
    118 C38         7.6720   -0.0220   -0.0510 c3        1 MOL     -0.271592
    119 C39         9.0430   -0.5480   -0.1050 ca        1 MOL      0.247261
    120 C40         9.5080   -1.6120    0.7310 ca        1 MOL     -0.253891
    121 C41         9.9180    0.0510   -0.9820 ca        1 MOL     -0.253891
    122 C42        10.8030   -2.1620    0.6020 ca        1 MOL     -0.060659
    123 C43        11.2120   -0.4530   -1.1560 ca        1 MOL     -0.060659
    124 C44        11.6400   -1.5330   -0.3790 ca        1 MOL     -0.188319
    125 H51         4.8010    0.4260    0.6330 hn        1 MOL      0.089822
    126 H52         7.1900   -0.7070    1.9090 h1        1 MOL     -0.008105
    127 H53         7.7680    1.0370    0.1780 hc        1 MOL      0.082051
    128 H54         7.2910   -0.0540   -1.0740 hc        1 MOL      0.082051
    129 H55         8.8590   -2.1720    1.3900 ha        1 MOL      0.136244
    130 H56         9.5640    0.8810   -1.5830 ha        1 MOL      0.136244
    131 H57        11.1430   -2.9880    1.2120 ha        1 MOL      0.102750
    132 H58        11.8340   -0.0460   -1.9380 ha        1 MOL      0.102750
    133 H59        12.6420   -1.9000   -0.5390 ha        1 MOL      0.098542
    134 N12         5.0830   -2.5230    1.1580 n         1 MOL     -0.098169
    135 C45         4.5320   -3.7720    0.7930 c3        1 MOL     -0.075247
    136 C46         4.0610   -3.8660   -0.6050 c         1 MOL      0.230560
    137 O20         4.1840   -4.9490   -1.2020 o         1 MOL     -0.500288
    138 C47         3.3540   -4.0070    1.7060 c3        1 MOL      0.257929
    139 C48         3.7230   -3.1890    2.9040 c3        1 MOL     -0.328490
    140 C49         4.4490   -1.9960    2.3330 c3        1 MOL     -0.045485
    141 H60         5.2700   -4.5580    0.9860 h1        1 MOL      0.090704
    142 H61         2.3740   -3.6870    1.3470 hc        1 MOL     -0.018325
    143 H62         3.2490   -5.0560    1.9650 hc        1 MOL     -0.018325
    144 H63         2.8240   -2.7490    3.3410 hc        1 MOL      0.097486
    145 H64         4.2800   -3.7280    3.6670 hc        1 MOL      0.097486
    146 H65         3.6660   -1.3260    1.9590 h1        1 MOL      0.118896
    147 H66         5.0980   -1.5010    3.0480 h1        1 MOL      0.118896
    148 N13         3.7100   -2.7350   -1.2040 n         1 MOL      0.002829
    149 C50         3.3090   -2.5040   -2.6590 c3        1 MOL     -0.261143
    150 C51         4.5470   -2.8140   -3.6530 c         1 MOL      0.488123
    151 O21         4.3100   -3.3500   -4.7710 o         1 MOL     -0.558807
    152 C52         2.7320   -1.1080   -2.8550 c3        1 MOL      0.192383
    153 C53         1.6480   -0.6590   -1.8340 c3        1 MOL     -0.270098
    154 C54         2.0570   -0.4640   -0.3630 c         1 MOL      0.624996
    155 O22         1.3010   -0.8960    0.5390 o         1 MOL     -0.651500
    156 O23         3.1450    0.0970   -0.2180 o         1 MOL     -0.651500
    157 H67         3.7850   -1.9350   -0.5890 hn        1 MOL      0.163393
    158 H68         2.5710   -3.2840   -2.8580 h1        1 MOL      0.134790
    159 H69         2.3150   -1.0920   -3.8680 hc        1 MOL     -0.014372
    160 H70         3.5390   -0.3850   -2.9260 hc        1 MOL     -0.014372
    161 H71         0.8510   -1.3800   -1.9850 hc        1 MOL      0.063650
    162 H72         1.3620    0.3080   -2.2480 hc        1 MOL      0.063650
    163 N14         5.7520   -2.4280   -3.2770 n         1 MOL     -0.158823
    164 C55         6.9670   -2.6980   -4.1380 c3        1 MOL     -0.219692
    165 H73         7.8710   -2.5270   -3.5540 h1        1 MOL      0.098528
    166 H74         6.9470   -3.7320   -4.4810 h1        1 MOL      0.098528
    167 H75         6.9590   -2.0300   -4.9990 h1        1 MOL      0.098528
    168 H76         5.7930   -2.0110   -2.3630 hn        1 MOL      0.180368
    169 Ca1         0.1760   -0.1430    2.6500 Ca        1 MOL      1.651326
    170 O24         0.3370   -2.5750    3.8130 oh        1 MOL     -0.816294
    171 H77         0.1960   -3.3780    3.3100 ho        1 MOL      0.401564
    172 H78        -0.3790   -2.5550    4.4440 ho        1 MOL      0.401564
    173 O25        -1.2010   -2.3150    1.2640 oh        1 MOL     -0.816294
    174 H79        -0.7750   -2.3430    0.4080 ho        1 MOL      0.401564
    175 H80        -1.7530   -3.1030    1.2840 ho        1 MOL      0.401564
    176 O26        -1.1840    1.1830    0.8720 oh        1 MOL     -0.816294
    177 H81        -0.6130    1.8180    0.4320 ho        1 MOL      0.401564
    178 H82        -2.0320    1.2590    0.4240 ho        1 MOL      0.401564
    179 O27        -0.0220    0.3830    5.2280 oh        1 MOL     -0.816294
    180 H83        -0.9370    0.2790    5.4520 ho        1 MOL      0.401564
    181 H84         0.2020    1.2680    5.5080 ho        1 MOL      0.401564
@<TRIPOS>BOND
     1    1    2 1   
     2    1    4 1   
     3    1    5 1   
     4    1    6 1   
     5    2    3 2   
     6    2    7 1   
     7    7    8 1   
     8    7   15 1   
     9    8    9 1   
    10    8   11 1   
    11    8   16 1   
    12    9   10 2   
    13    9   19 1   
    14   11   12 1   
    15   11   17 1   
    16   11   18 1   
    17   12   13 1   
    18   12   14 1   
    19   19   20 1   
    20   19   24 1   
    21   20   21 1   
    22   20   23 1   
    23   20   25 1   
    24   21   22 2   
    25   21   29 1   
    26   23   26 1   
    27   23   27 1   
    28   23   28 1   
    29   29   30 1   
    30   29   37 1   
    31   30   31 1   
    32   30   33 1   
    33   30   38 1   
    34   31   32 2   
    35   31   41 1   
    36   33   34 1   
    37   33   39 1   
    38   33   40 1   
    39   34   35 1   
    40   34   36 1   
    41   41   42 1   
    42   41   45 1   
    43   42   43 1   
    44   42   46 1   
    45   42   47 1   
    46   43   44 2   
    47   43   48 1   
    48   48   49 1   
    49   48   56 1   
    50   49   50 1   
    51   49   52 1   
    52   49   57 1   
    53   50   51 2   
    54   50   62 1   
    55   52   53 1   
    56   52   58 1   
    57   52   59 1   
    58   53   54 1   
    59   53   55 2   
    60   54   60 1   
    61   54   61 1   
    62   62   63 1   
    63   62   66 1   
    64   63   64 1   
    65   63   67 1   
    66   63   68 1   
    67   64   65 2   
    68   64   69 1   
    69   69   70 1   
    70   69   76 1   
    71   70   71 1   
    72   70   73 1   
    73   70   77 1   
    74   71   72 2   
    75   71   83 1   
    76   73   74 1   
    77   73   75 1   
    78   73   78 1   
    79   74   80 1   
    80   74   81 1   
    81   74   82 1   
    82   75   79 1   
    83   83   84 1   
    84   83   91 1   
    85   84   85 1   
    86   84   87 1   
    87   84   92 1   
    88   85   86 2   
    89   85  102 1   
    90   87   88 1   
    91   87   89 1   
    92   87   93 1   
    93   88   90 1   
    94   88   94 1   
    95   88   95 1   
    96   89   96 1   
    97   89   97 1   
    98   89   98 1   
    99   90   99 1   
   100   90  100 1   
   101   90  101 1   
   102  102  103 1   
   103  102  110 1   
   104  103  104 1   
   105  103  106 1   
   106  103  111 1   
   107  104  105 2   
   108  104  114 1   
   109  106  107 1   
   110  106  112 1   
   111  106  113 1   
   112  107  108 1   
   113  107  109 1   
   114  114  115 1   
   115  114  125 1   
   116  115  116 1   
   117  115  118 1   
   118  115  126 1   
   119  116  117 2   
   120  116  134 1   
   121  118  119 1   
   122  118  127 1   
   123  118  128 1   
   124  119  120 ar  
   125  119  121 ar  
   126  120  122 ar  
   127  120  129 1   
   128  121  123 ar  
   129  121  130 1   
   130  122  124 ar  
   131  122  131 1   
   132  123  124 ar  
   133  123  132 1   
   134  124  133 1   
   135  134  135 1   
   136  134  140 1   
   137  135  136 1   
   138  135  138 1   
   139  135  141 1   
   140  136  137 2   
   141  136  148 1   
   142  138  139 1   
   143  138  142 1   
   144  138  143 1   
   145  139  140 1   
   146  139  144 1   
   147  139  145 1   
   148  140  146 1   
   149  140  147 1   
   150  148  149 1   
   151  148  157 1   
   152  149  150 1   
   153  149  152 1   
   154  149  158 1   
   155  150  151 2   
   156  150  163 1   
   157  152  153 1   
   158  152  159 1   
   159  152  160 1   
   160  153  154 1   
   161  153  161 1   
   162  153  162 1   
   163  154  155 1   
   164  154  156 1   
   165  163  164 1   
   166  163  168 1   
   167  164  165 1   
   168  164  166 1   
   169  164  167 1   
   170  170  171 1   
   171  170  172 1   
   172  173  174 1   
   173  173  175 1   
   174  176  177 1   
   175  176  178 1   
   176  179  180 1   
   177  179  181 1   
@<TRIPOS>SUBSTRUCTURE
     1 MOL         1 TEMP              0 ****  ****    0 ROOT
