@<TRIPOS>MOLECULE
MOL
  195   189     1     0     0
SMALL
resp


@<TRIPOS>ATOM
      1 C1         -3.5760   -2.2200    2.8840 c3        1 MOL     -0.383805
      2 C2         -2.7160   -3.0810    1.9330 c         1 MOL      0.659357
      3 O1         -1.6560   -2.5690    1.4160 o         1 MOL     -0.549710
      4 H1         -3.9250   -1.3340    2.3560 hc        1 MOL      0.091464
      5 H2         -4.4350   -2.8000    3.2240 hc        1 MOL      0.091464
      6 H3         -2.9770   -1.9180    3.7440 hc        1 MOL      0.091464
      7 N1         -3.1080   -4.3170    1.6050 n         1 MOL     -0.416101
      8 C3         -2.5930   -5.1770    0.5900 c3        1 MOL      0.164978
      9 C4         -1.0770   -5.4900    0.6580 c         1 MOL      0.672229
     10 O2         -0.5140   -5.8310   -0.3720 o         1 MOL     -0.508599
     11 C5         -3.0940   -4.7640   -0.7700 c3        1 MOL     -0.414420
     12 C6         -4.6160   -4.6430   -0.8580 c         1 MOL      0.862319
     13 O3         -5.1940   -3.5720   -0.6140 o         1 MOL     -0.810567
     14 O4         -5.3900   -5.6340   -0.8200 o         1 MOL     -0.810567
     15 H4         -3.8800   -4.5980    2.1850 hn        1 MOL      0.239632
     16 H5         -3.0650   -6.1460    0.7280 h1        1 MOL      0.055083
     17 H6         -2.6970   -5.5630   -1.4030 hc        1 MOL      0.111654
     18 H7         -2.6020   -3.8550   -1.0910 hc        1 MOL      0.111654
     19 N2         -0.5200   -5.4900    1.8850 n         1 MOL     -0.721842
     20 C7          0.9220   -5.5910    2.1580 c3        1 MOL     -0.042654
     21 C8          1.5760   -6.8230    1.5350 c         1 MOL      0.520161
     22 O5          1.0490   -7.9120    1.4760 o         1 MOL     -0.561607
     23 C9          1.2590   -5.3930    3.6860 c3        1 MOL      0.379303
     24 C10         0.5560   -6.3730    4.6960 c3        1 MOL      0.205256
     25 C11         1.0970   -3.9160    4.1240 c3        1 MOL     -0.403865
     26 C12         1.1300   -6.3820    6.1440 c3        1 MOL     -0.157505
     27 H8         -1.1510   -5.2430    2.6370 hn        1 MOL      0.254996
     28 H9          1.2900   -4.7440    1.5870 h1        1 MOL      0.196935
     29 H10         2.3020   -5.7200    3.7730 hc        1 MOL     -0.059617
     30 H11         0.6660   -7.4030    4.3750 hc        1 MOL     -0.063118
     31 H12        -0.5100   -6.1470    4.7800 hc        1 MOL     -0.063118
     32 H13         1.8350   -3.6430    4.8800 hc        1 MOL      0.084223
     33 H14         1.2700   -3.3560    3.2030 hc        1 MOL      0.084223
     34 H15         0.0840   -3.6960    4.4730 hc        1 MOL      0.084223
     35 H16         2.1840   -6.6520    6.1750 hc        1 MOL      0.020593
     36 H17         0.9020   -5.4330    6.6200 hc        1 MOL      0.020593
     37 H18         0.5800   -7.1270    6.7100 hc        1 MOL      0.020593
     38 N3          2.7650   -6.6640    0.9840 n         1 MOL     -0.491028
     39 C13         3.5950   -5.4560    0.7120 c3        1 MOL      0.063427
     40 C14         4.3920   -5.7160   -0.6350 c         1 MOL      0.393914
     41 O6          5.3370   -6.4910   -0.7110 o         1 MOL     -0.492823
     42 C15         4.5140   -5.1720    1.8850 c3        1 MOL     -0.393584
     43 C16         5.6290   -4.1060    1.6340 c         1 MOL      0.791676
     44 O7          5.6780   -3.4560    0.5060 o         1 MOL     -0.716945
     45 O8          6.4710   -3.9360    2.5410 o         1 MOL     -0.716945
     46 H19         3.2190   -7.5260    0.6990 hn        1 MOL      0.306799
     47 H20         2.9950   -4.5510    0.6540 h1        1 MOL      0.043526
     48 H21         4.9300   -6.1330    2.1800 hc        1 MOL      0.100470
     49 H22         3.8510   -4.6870    2.5990 hc        1 MOL      0.100470
     50 N4          3.9630   -5.0150   -1.6550 n         1 MOL     -0.200802
     51 C17         4.5060   -5.2330   -3.0030 c3        1 MOL     -0.101611
     52 C18         5.5360   -4.1800   -3.5230 c         1 MOL      0.567134
     53 O9          6.2410   -4.4400   -4.5000 o         1 MOL     -0.596078
     54 H23         3.0220   -4.6960   -1.4950 hn        1 MOL      0.239816
     55 H24         3.6940   -5.2940   -3.7380 h1        1 MOL      0.062452
     56 H25         4.9130   -6.2480   -2.9980 h1        1 MOL      0.062452
     57 N5          5.7710   -3.0780   -2.7160 n         1 MOL     -0.297388
     58 C19         6.5910   -1.9050   -3.1050 c3        1 MOL      0.025006
     59 C20         7.3970   -1.2530   -1.9840 c         1 MOL      0.454921
     60 O10         8.5290   -0.7980   -2.2460 o         1 MOL     -0.590471
     61 C21         5.6320   -0.8090   -3.5810 c3        1 MOL     -0.264654
     62 C22         4.4760   -0.5530   -2.5700 c         1 MOL      0.770535
     63 O11         3.6170   -1.3790   -2.4550 o         1 MOL     -0.699446
     64 O12         4.4140    0.5420   -1.9660 o         1 MOL     -0.699446
     65 H26         5.1300   -2.8900   -1.9590 hn        1 MOL      0.166250
     66 H27         7.3310   -2.1340   -3.8760 h1        1 MOL      0.075038
     67 H28         5.1180   -1.0830   -4.5070 hc        1 MOL      0.049402
     68 H29         6.2070    0.0830   -3.8240 hc        1 MOL      0.049402
     69 N6          6.9110   -1.0830   -0.7750 n         1 MOL     -0.153397
     70 C23         7.6350   -0.3040    0.2620 c3        1 MOL     -0.233072
     71 C24         7.7330    1.2400    0.1260 c         1 MOL      0.575222
     72 O13         8.4790    1.8830    0.8820 o         1 MOL     -0.592616
     73 H30         5.9930   -1.4640   -0.5820 hn        1 MOL      0.259280
     74 H31         8.6080   -0.7920    0.3190 h1        1 MOL      0.114054
     75 H32         7.1470   -0.5590    1.2090 h1        1 MOL      0.114054
     76 N7          6.8980    1.7720   -0.7580 n         1 MOL     -0.163422
     77 C25         6.7550    3.1640   -1.1710 c3        1 MOL     -0.040881
     78 C26         6.4790    4.1100   -0.0070 c         1 MOL      0.397245
     79 O14         6.7420    5.3110   -0.1530 o         1 MOL     -0.499089
     80 C27         7.9260    3.7010   -2.1240 c3        1 MOL      0.276248
     81 C28         7.9660    2.9590   -3.4530 c3        1 MOL     -0.305576
     82 C29         6.7570    3.3240   -4.3670 c         1 MOL      0.663672
     83 N8          6.5310    2.5890   -5.4080 n         1 MOL     -0.761543
     84 O15         6.0800    4.3130   -4.1640 o         1 MOL     -0.561084
     85 H33         6.4160    1.2290   -1.4620 hn        1 MOL      0.092921
     86 H34         5.8690    3.1090   -1.8030 h1        1 MOL      0.109754
     87 H35         8.8400    3.5920   -1.5500 hc        1 MOL     -0.033515
     88 H36         7.8500    4.7760   -2.2790 hc        1 MOL     -0.033515
     89 H37         8.1020    1.8940   -3.2990 hc        1 MOL      0.051697
     90 H38         8.8160    3.3720   -4.0010 hc        1 MOL      0.051697
     91 H39         7.1310    1.8110   -5.6100 hn        1 MOL      0.345675
     92 H40         5.9370    3.0090   -6.1030 hn        1 MOL      0.345675
     93 N9          5.9070    3.6060    1.1290 n         1 MOL     -0.298174
     94 C30         5.6380    4.4150    2.3500 c3        1 MOL     -0.059787
     95 C31         4.2270    4.4450    2.8270 c         1 MOL      0.481622
     96 O16         3.9820    5.4020    3.6300 o         1 MOL     -0.579224
     97 C32         6.5190    3.9900    3.5650 c3        1 MOL      0.277476
     98 C33         6.3000    2.4830    3.8220 c3        1 MOL     -0.318222
     99 C34         7.9920    4.1980    3.2490 c3        1 MOL     -0.318222
    100 H41         5.4390    2.7140    1.0400 hn        1 MOL      0.219287
    101 H42         5.8670    5.4530    2.1470 h1        1 MOL      0.097655
    102 H43         6.2470    4.4830    4.4990 hc        1 MOL     -0.022677
    103 H44         6.5830    1.8540    2.9750 hc        1 MOL      0.070778
    104 H45         7.0490    2.2460    4.5820 hc        1 MOL      0.070778
    105 H46         5.3270    2.1090    4.1140 hc        1 MOL      0.070778
    106 H47         8.1450    5.2710    3.1280 hc        1 MOL      0.070778
    107 H48         8.5740    3.8670    4.1130 hc        1 MOL      0.070778
    108 H49         8.3440    3.6270    2.3780 hc        1 MOL      0.070778
    109 N10         3.3570    3.6360    2.3230 n         1 MOL     -0.334385
    110 C35         1.9830    3.5090    2.6690 c3        1 MOL      0.277108
    111 C36         1.1090    3.2590    1.3960 c         1 MOL      0.412535
    112 O17         1.5990    3.0350    0.2810 o         1 MOL     -0.475652
    113 C37         1.8820    2.3080    3.6110 c3        1 MOL     -0.366038
    114 C38         0.4990    1.8990    4.1260 c         1 MOL      0.683272
    115 N11        -0.0280    0.8630    3.5670 n         1 MOL     -0.761247
    116 O18        -0.0490    2.5540    5.0260 o         1 MOL     -0.575972
    117 H50         3.6090    3.0900    1.5170 hn        1 MOL      0.214636
    118 H51         1.7320    4.4300    3.1910 h1        1 MOL      0.034374
    119 H52         2.6560    2.5490    4.3430 hc        1 MOL      0.102290
    120 H53         2.2910    1.5190    2.9850 hc        1 MOL      0.102290
    121 H54         0.4530    0.4360    2.7880 hn        1 MOL      0.359816
    122 H55        -0.9400    0.5050    3.7980 hn        1 MOL      0.359816
    123 N12        -0.2360    3.3210    1.5350 n         1 MOL     -0.472163
    124 C39        -1.1410    3.5260    0.3250 c3        1 MOL      0.070926
    125 C40        -2.4950    4.1620    0.7100 c         1 MOL      0.691513
    126 O19        -2.9400    4.0460    1.8360 o         1 MOL     -0.546470
    127 C41        -1.3530    2.1590   -0.3710 c3        1 MOL     -0.071594
    128 C42        -1.8100    2.2490   -1.7920 ca        1 MOL     -0.154410
    129 C43        -3.1640    2.0950   -2.1170 ca        1 MOL      0.008883
    130 C44        -0.7730    2.3230   -2.8300 ca        1 MOL      0.008883
    131 C45        -3.5960    2.0790   -3.4450 ca        1 MOL     -0.381318
    132 C46        -1.2410    2.4180   -4.1380 ca        1 MOL     -0.381318
    133 C47        -2.6430    2.2860   -4.4460 ca        1 MOL      0.412618
    134 O20        -2.9680    2.3400   -5.7450 oh        1 MOL     -0.489453
    135 H56        -0.5750    3.5440    2.4630 hn        1 MOL      0.264876
    136 H57        -0.6470    4.1210   -0.4370 h1        1 MOL      0.085038
    137 H58        -2.1000    1.6170    0.2080 hc        1 MOL      0.076428
    138 H59        -0.4640    1.5260   -0.4350 hc        1 MOL      0.076428
    139 H60        -3.9360    1.9530   -1.3720 ha        1 MOL      0.151839
    140 H61         0.2690    2.3170   -2.5360 ha        1 MOL      0.151839
    141 H62        -4.6590    2.0480   -3.6730 ha        1 MOL      0.172463
    142 H63        -0.5800    2.4960   -4.9930 ha        1 MOL      0.172463
    143 H64        -3.9220    2.4160   -5.8240 ho        1 MOL      0.339649
    144 N13        -3.1810    4.8210   -0.2040 n         1 MOL     -0.814488
    145 C48        -4.5810    5.1870   -0.1930 c3        1 MOL      0.493707
    146 C49        -5.3280    4.6300   -1.4010 c         1 MOL      0.177735
    147 O21        -5.0090    4.9540   -2.5770 o         1 MOL     -0.475802
    148 C50        -4.7850    6.7810   -0.0190 c3        1 MOL      0.065311
    149 C51        -3.8100    7.5000    0.8890 c3        1 MOL     -0.283015
    150 C52        -3.9110    9.0310    0.6540 c         1 MOL      0.703911
    151 O22        -3.5820    9.3150   -0.5220 o         1 MOL     -0.709641
    152 O23        -4.3160    9.8340    1.5430 o         1 MOL     -0.709641
    153 H65        -2.7510    4.8890   -1.1110 hn        1 MOL      0.375188
    154 H66        -4.9450    4.7290    0.7230 h1        1 MOL     -0.032083
    155 H67        -5.7920    7.0190    0.2990 hc        1 MOL      0.029582
    156 H68        -4.7750    7.2490   -0.9980 hc        1 MOL      0.029582
    157 H69        -2.8090    7.1540    0.6080 hc        1 MOL      0.045146
    158 H70        -3.8340    7.2460    1.9410 hc        1 MOL      0.045146
    159 N14        -6.4270    3.8400   -1.2080 n         1 MOL     -0.245511
    160 C53        -6.7790    3.1170   -0.0050 c3        1 MOL     -0.356396
    161 C54        -7.2590    4.0950    1.1500 c         1 MOL      0.363315
    162 O24        -8.0200    5.0520    0.9130 o         1 MOL     -0.493275
    163 C55        -7.8060    2.0350   -0.2050 c3        1 MOL      0.193678
    164 C56        -7.4150    0.8400   -0.9500 c3        1 MOL     -0.034087
    165 C57        -8.3090   -0.3590   -0.8810 c         1 MOL      0.707675
    166 O25        -7.6840   -1.4520   -0.5940 o         1 MOL     -0.733971
    167 O26        -9.5300   -0.3410   -1.1560 o         1 MOL     -0.733971
    168 H71        -6.9250    3.5600   -2.0440 hn        1 MOL      0.290466
    169 H72        -5.9190    2.6100    0.4160 h1        1 MOL      0.134038
    170 H73        -8.6770    2.4800   -0.6820 hc        1 MOL      0.004223
    171 H74        -8.1790    1.7010    0.7670 hc        1 MOL      0.004223
    172 H75        -6.4290    0.5280   -0.5900 hc        1 MOL     -0.028476
    173 H76        -7.3230    1.0630   -2.0120 hc        1 MOL     -0.028476
    174 N15        -6.6440    3.9500    2.3140 n         1 MOL     -0.167864
    175 C58        -6.6570    4.6810    3.6190 c3        1 MOL     -0.220962
    176 H77        -7.1780    5.6300    3.4970 h1        1 MOL      0.106844
    177 H78        -7.1710    4.0780    4.3680 h1        1 MOL      0.106844
    178 H79        -5.6330    4.8680    3.9410 h1        1 MOL      0.106844
    179 H80        -6.0850    3.1150    2.3560 hn        1 MOL      0.213248
    180 Ca1        -7.6730   -3.9890   -0.8400 Ca        1 MOL      1.753063
    181 O27        -6.6480   -2.7830   -3.1840 oh        1 MOL     -0.866335
    182 H81        -6.1570   -1.9540   -3.1360 ho        1 MOL      0.418894
    183 H82        -6.6130   -3.0230   -4.1110 ho        1 MOL      0.418894
    184 O28        -9.7730   -2.9450   -1.9560 oh        1 MOL     -0.866335
    185 H83        -9.7160   -2.0550   -1.5950 ho        1 MOL      0.418894
    186 H84        -9.6830   -2.8260   -2.9010 ho        1 MOL      0.418894
    187 O29        -9.2590   -2.9580    1.0960 oh        1 MOL     -0.866335
    188 H85        -9.9320   -3.3210    1.6630 ho        1 MOL      0.418894
    189 H86        -9.3940   -2.0120    1.1510 ho        1 MOL      0.418894
    190 O30        -9.6050   -5.7660   -0.5490 oh        1 MOL     -0.866335
    191 H87        -9.6830   -6.6790   -0.7930 ho        1 MOL      0.418894
    192 H88       -10.3340   -5.6060    0.0510 ho        1 MOL      0.418894
    193 O31        -7.6780   -5.7260   -3.0030 oh        1 MOL     -0.866335
    194 H89        -8.4110   -6.2200   -3.3940 ho        1 MOL      0.418894
    195 H90        -6.9490   -5.8560   -3.6050 ho        1 MOL      0.418894
@<TRIPOS>BOND
     1    1    2 1   
     2    1    4 1   
     3    1    5 1   
     4    1    6 1   
     5    2    3 2   
     6    2    7 1   
     7    7    8 1   
     8    7   15 1   
     9    8    9 1   
    10    8   11 1   
    11    8   16 1   
    12    9   10 2   
    13    9   19 1   
    14   11   12 1   
    15   11   17 1   
    16   11   18 1   
    17   12   13 1   
    18   12   14 1   
    19   19   20 1   
    20   19   27 1   
    21   20   21 1   
    22   20   23 1   
    23   20   28 1   
    24   21   22 2   
    25   21   38 1   
    26   23   24 1   
    27   23   25 1   
    28   23   29 1   
    29   24   26 1   
    30   24   30 1   
    31   24   31 1   
    32   25   32 1   
    33   25   33 1   
    34   25   34 1   
    35   26   35 1   
    36   26   36 1   
    37   26   37 1   
    38   38   39 1   
    39   38   46 1   
    40   39   40 1   
    41   39   42 1   
    42   39   47 1   
    43   40   41 2   
    44   40   50 1   
    45   42   43 1   
    46   42   48 1   
    47   42   49 1   
    48   43   44 1   
    49   43   45 1   
    50   50   51 1   
    51   50   54 1   
    52   51   52 1   
    53   51   55 1   
    54   51   56 1   
    55   52   53 2   
    56   52   57 1   
    57   57   58 1   
    58   57   65 1   
    59   58   59 1   
    60   58   61 1   
    61   58   66 1   
    62   59   60 2   
    63   59   69 1   
    64   61   62 1   
    65   61   67 1   
    66   61   68 1   
    67   62   63 1   
    68   62   64 1   
    69   69   70 1   
    70   69   73 1   
    71   70   71 1   
    72   70   74 1   
    73   70   75 1   
    74   71   72 2   
    75   71   76 1   
    76   76   77 1   
    77   76   85 1   
    78   77   78 1   
    79   77   80 1   
    80   77   86 1   
    81   78   79 2   
    82   78   93 1   
    83   80   81 1   
    84   80   87 1   
    85   80   88 1   
    86   81   82 1   
    87   81   89 1   
    88   81   90 1   
    89   82   83 1   
    90   82   84 2   
    91   83   91 1   
    92   83   92 1   
    93   93   94 1   
    94   93  100 1   
    95   94   95 1   
    96   94   97 1   
    97   94  101 1   
    98   95   96 2   
    99   95  109 1   
   100   97   98 1   
   101   97   99 1   
   102   97  102 1   
   103   98  103 1   
   104   98  104 1   
   105   98  105 1   
   106   99  106 1   
   107   99  107 1   
   108   99  108 1   
   109  109  110 1   
   110  109  117 1   
   111  110  111 1   
   112  110  113 1   
   113  110  118 1   
   114  111  112 2   
   115  111  123 1   
   116  113  114 1   
   117  113  119 1   
   118  113  120 1   
   119  114  115 1   
   120  114  116 2   
   121  115  121 1   
   122  115  122 1   
   123  123  124 1   
   124  123  135 1   
   125  124  125 1   
   126  124  127 1   
   127  124  136 1   
   128  125  126 2   
   129  125  144 1   
   130  127  128 1   
   131  127  137 1   
   132  127  138 1   
   133  128  129 ar  
   134  128  130 ar  
   135  129  131 ar  
   136  129  139 1   
   137  130  132 ar  
   138  130  140 1   
   139  131  133 ar  
   140  131  141 1   
   141  132  133 ar  
   142  132  142 1   
   143  133  134 1   
   144  134  143 1   
   145  144  145 1   
   146  144  153 1   
   147  145  146 1   
   148  145  148 1   
   149  145  154 1   
   150  146  147 2   
   151  146  159 1   
   152  148  149 1   
   153  148  155 1   
   154  148  156 1   
   155  149  150 1   
   156  149  157 1   
   157  149  158 1   
   158  150  151 1   
   159  150  152 1   
   160  159  160 1   
   161  159  168 1   
   162  160  161 1   
   163  160  163 1   
   164  160  169 1   
   165  161  162 2   
   166  161  174 1   
   167  163  164 1   
   168  163  170 1   
   169  163  171 1   
   170  164  165 1   
   171  164  172 1   
   172  164  173 1   
   173  165  166 1   
   174  165  167 1   
   175  174  175 1   
   176  174  179 1   
   177  175  176 1   
   178  175  177 1   
   179  175  178 1   
   180  181  182 1   
   181  181  183 1   
   182  184  185 1   
   183  184  186 1   
   184  187  188 1   
   185  187  189 1   
   186  190  191 1   
   187  190  192 1   
   188  193  194 1   
   189  193  195 1   
@<TRIPOS>SUBSTRUCTURE
     1 MOL         1 TEMP              0 ****  ****    0 ROOT
