@<TRIPOS>MOLECULE
MOL
  182   178     1     0     0
SMALL
resp


@<TRIPOS>ATOM
      1 C1          1.2430   -3.7890    6.2190 c3        1 MOL     -0.412632
      2 C2          1.2720   -3.7380    4.6410 c         1 MOL      0.687419
      3 O1          0.2420   -3.9240    3.8930 o         1 MOL     -0.586004
      4 H1          1.5920   -2.8370    6.6200 hc        1 MOL      0.128188
      5 H2          0.2230   -3.9740    6.5580 hc        1 MOL      0.128188
      6 H3          1.8940   -4.5910    6.5690 hc        1 MOL      0.128188
      7 N1          2.4390   -3.5680    3.9900 n         1 MOL     -0.534714
      8 C3          2.6640   -3.3060    2.5650 c3        1 MOL     -0.243897
      9 C4          3.0490   -4.6050    1.7890 c         1 MOL      0.764456
     10 O2          3.8060   -5.4530    2.2850 o         1 MOL     -0.569888
     11 C5          3.7600   -2.2410    2.5140 c3        1 MOL      0.177708
     12 C6          3.4980   -1.3100    1.3390 c         1 MOL      0.546810
     13 O3          3.6580   -0.1030    1.5570 o         1 MOL     -0.696442
     14 O4          3.3000   -1.7860    0.2220 o         1 MOL     -0.696442
     15 H4          3.2400   -3.5990    4.6040 hn        1 MOL      0.306109
     16 H5          1.7530   -2.8250    2.2190 h1        1 MOL      0.143999
     17 H6          4.7570   -2.6840    2.5280 hc        1 MOL      0.008561
     18 H7          3.8030   -1.6720    3.4410 hc        1 MOL      0.008561
     19 N2          2.7380   -4.5930    0.4940 n         1 MOL     -0.531244
     20 C7          3.0780   -5.5150   -0.5960 c3        1 MOL     -0.046101
     21 C8          4.1000   -4.9400   -1.6480 c         1 MOL      0.521031
     22 O5          4.5040   -5.5540   -2.5650 o         1 MOL     -0.551702
     23 C9          1.8490   -6.1760   -1.1880 c3        1 MOL      0.092204
     24 C10         0.9040   -5.1260   -1.8380 c3        1 MOL      0.080770
     25 C11        -0.2890   -5.6440   -2.6730 c3        1 MOL     -0.160196
     26 C12        -1.1100   -6.6360   -1.8490 c3        1 MOL      0.075178
     27 N3         -2.2160   -7.2110   -2.5980 n4        1 MOL     -0.096548
     28 H8          2.3470   -3.7220    0.1790 hn        1 MOL      0.243399
     29 H9          3.6220   -6.3760   -0.1970 h1        1 MOL      0.116945
     30 H10         1.3670   -6.7670   -0.4090 hc        1 MOL     -0.006249
     31 H11         2.1590   -6.8480   -1.9910 hc        1 MOL     -0.006249
     32 H12         1.4880   -4.4490   -2.4560 hc        1 MOL      0.003276
     33 H13         0.4430   -4.4940   -1.0780 hc        1 MOL      0.003276
     34 H14         0.0990   -6.0610   -3.6110 hc        1 MOL      0.049615
     35 H15        -0.9140   -4.7780   -2.8620 hc        1 MOL      0.049615
     36 H16        -1.5800   -6.0690   -1.0530 hx        1 MOL      0.064048
     37 H17        -0.4680   -7.4060   -1.4290 hx        1 MOL      0.064048
     38 H18        -2.8530   -7.8460   -2.1380 hn        1 MOL      0.201000
     39 H19        -2.7520   -6.4600   -3.0030 hn        1 MOL      0.201000
     40 H20        -1.8910   -7.6790   -3.4400 hn        1 MOL      0.201000
     41 N4          4.6420   -3.7450   -1.4620 n         1 MOL     -0.258899
     42 C13         5.8790   -3.2730   -2.2060 c3        1 MOL      0.035970
     43 C14         6.8450   -2.5700   -1.2810 c         1 MOL      0.375836
     44 O6          7.9940   -2.3930   -1.7310 o         1 MOL     -0.521069
     45 C15         5.4170   -2.3610   -3.3270 c3        1 MOL     -0.308788
     46 C16         4.5010   -1.2360   -2.8460 c         1 MOL      0.856744
     47 O7          3.3430   -1.1960   -3.2960 o         1 MOL     -0.774299
     48 O8          4.8810   -0.4800   -1.9170 o         1 MOL     -0.774299
     49 H21         4.0890   -3.1680   -0.8490 hn        1 MOL      0.157512
     50 H22         6.4290   -4.1480   -2.5370 h1        1 MOL      0.146439
     51 H23         4.8390   -2.8700   -4.1040 hc        1 MOL      0.092722
     52 H24         6.3030   -1.8940   -3.7710 hc        1 MOL      0.092722
     53 N5          6.4260   -2.2510   -0.0690 n         1 MOL     -0.128863
     54 C17         7.3030   -1.7940    0.9850 c3        1 MOL     -0.129924
     55 C18         7.4440   -0.2100    1.0100 c         1 MOL      0.379929
     56 O9          8.0870    0.3370    1.9260 o         1 MOL     -0.529923
     57 H25         5.4460   -2.3920    0.1370 hn        1 MOL      0.058178
     58 H26         8.2940   -2.2400    0.8990 h1        1 MOL      0.107810
     59 H27         6.8850   -2.1100    1.9330 h1        1 MOL      0.107810
     60 N6          6.7990    0.4020    0.0470 n         1 MOL     -0.043959
     61 C19         7.0540    1.8200   -0.3960 c3        1 MOL     -0.163772
     62 C20         5.7340    2.6210   -0.4720 c         1 MOL      0.518337
     63 O10         4.6270    2.0560   -0.4490 o         1 MOL     -0.473978
     64 C21         7.7730    1.7690   -1.7890 c3        1 MOL     -0.079286
     65 C22         9.1590    1.3240   -1.7260 c         1 MOL      0.681630
     66 N7          9.4340    0.0620   -1.8190 n         1 MOL     -0.770510
     67 O11        10.1080    2.0460   -1.8020 o         1 MOL     -0.605497
     68 H28         6.2320   -0.0800   -0.6290 hn        1 MOL      0.252071
     69 H29         7.7340    2.3490    0.2820 h1        1 MOL      0.094272
     70 H30         7.7990    2.7870   -2.1640 hc        1 MOL      0.022717
     71 H31         7.1970    1.2460   -2.5610 hc        1 MOL      0.022717
     72 H32         8.7690   -0.6840   -1.9470 hn        1 MOL      0.354592
     73 H33        10.4210   -0.0380   -1.6070 hn        1 MOL      0.354592
     74 N8          5.8540    3.9680   -0.5430 n         1 MOL     -0.378649
     75 C23         4.6910    4.9030   -0.6560 c3        1 MOL     -0.117433
     76 C24         3.5900    4.7560    0.4010 c         1 MOL      0.561813
     77 O12         3.7810    4.5380    1.5890 o         1 MOL     -0.460613
     78 H34         6.7850    4.3450   -0.4460 hn        1 MOL      0.315081
     79 H35         4.2290    4.6840   -1.6180 h1        1 MOL      0.087758
     80 H36         5.1600    5.8780   -0.7460 h1        1 MOL      0.087758
     81 N9          2.3170    5.0140   -0.0850 n         1 MOL     -0.553768
     82 C25         1.1090    4.7570    0.6570 c3        1 MOL      0.140687
     83 C26         0.9000    3.2480    1.0050 c         1 MOL      0.834525
     84 O13         1.3090    2.4220    0.1560 o         1 MOL     -0.745194
     85 C27        -0.1080    5.4400    0.0240 c3        1 MOL     -0.253021
     86 C28         0.0300    6.9570   -0.1120 ca        1 MOL      0.131556
     87 C29         0.0060    7.8740    0.9590 ca        1 MOL     -0.169052
     88 C30         0.0220    7.4590   -1.4220 ca        1 MOL     -0.169052
     89 C31         0.1100    9.3020    0.7710 ca        1 MOL     -0.292645
     90 C32         0.0910    8.8800   -1.6470 ca        1 MOL     -0.292645
     91 C33         0.0960    9.8010   -0.5630 ca        1 MOL      0.373752
     92 O14         0.1560   11.1450   -0.7230 oh        1 MOL     -0.488336
     93 H37         2.2780    5.1940   -1.0790 hn        1 MOL      0.290004
     94 H38         1.3120    5.2070    1.6320 h1        1 MOL      0.046719
     95 H39        -0.9910    5.1750    0.6040 hc        1 MOL      0.082928
     96 H40        -0.2010    5.0240   -0.9760 hc        1 MOL      0.082928
     97 H41         0.0190    7.4380    1.9470 ha        1 MOL      0.134469
     98 H42        -0.1140    6.8690   -2.3160 ha        1 MOL      0.134469
     99 H43         0.2380    9.9350    1.6400 ha        1 MOL      0.170989
    100 H44         0.1580    9.3280   -2.6290 ha        1 MOL      0.170989
    101 H45        -0.1120   11.5570    0.1050 ho        1 MOL      0.375538
    102 N10         0.1430    2.9330    2.0680 n         1 MOL     -0.837767
    103 C34        -0.0060    1.6130    2.6990 c3        1 MOL      0.168195
    104 C35        -0.2240    0.4400    1.6730 c         1 MOL      0.756308
    105 O15         0.7690   -0.0450    1.0100 o         1 MOL     -0.431637
    106 C36         1.1090    1.2540    3.7840 c3        1 MOL      0.125363
    107 C37         1.0540   -0.0830    4.4430 c3        1 MOL     -0.351404
    108 C38         1.0990    2.3510    4.8710 c3        1 MOL     -0.213798
    109 C39        -0.2970   -0.4070    5.0540 c3        1 MOL     -0.123686
    110 H46        -0.3020    3.6490    2.6250 hn        1 MOL      0.392954
    111 H47        -0.9760    1.6080    3.1970 h1        1 MOL      0.027434
    112 H48         2.0620    1.3030    3.2520 hc        1 MOL      0.056011
    113 H49         1.7610   -0.1050    5.2770 hc        1 MOL      0.137855
    114 H50         1.3590   -0.7990    3.6850 hc        1 MOL      0.137855
    115 H51         1.8230    2.1260    5.6590 hc        1 MOL      0.057736
    116 H52         1.3500    3.3090    4.4080 hc        1 MOL      0.057736
    117 H53         0.0940    2.4430    5.2800 hc        1 MOL      0.057736
    118 H54        -0.1840   -1.2920    5.6880 hc        1 MOL      0.036745
    119 H55        -0.5950    0.4210    5.6960 hc        1 MOL      0.036745
    120 H56        -1.0640   -0.5140    4.2910 hc        1 MOL      0.036745
    121 N11        -1.4790   -0.0390    1.5470 n         1 MOL     -0.673596
    122 C40        -1.7920   -1.0620    0.5540 c3        1 MOL      0.065545
    123 C41        -3.2870   -1.2750    0.1490 c         1 MOL      0.680077
    124 O16        -3.5560   -1.9590   -0.8110 o         1 MOL     -0.587393
    125 C42        -1.2690   -2.4250    1.1440 c3        1 MOL      0.201472
    126 O17        -1.8590   -2.8390    2.3960 oh        1 MOL     -0.576113
    127 H57        -2.2000    0.3030    2.1610 hn        1 MOL      0.321186
    128 H58        -1.2670   -0.8440   -0.3810 h1        1 MOL      0.007904
    129 H59        -0.1850   -2.3900    1.1440 h1        1 MOL      0.006376
    130 H60        -1.6320   -3.0710    0.3420 h1        1 MOL      0.006376
    131 H61        -1.1100   -2.9030    2.9940 ho        1 MOL      0.356329
    132 N12        -4.2930   -0.6400    0.6930 n         1 MOL     -0.577546
    133 C43        -5.6400   -0.3480    0.1560 c3        1 MOL      0.198557
    134 C44        -5.7070    0.4040   -1.2720 c         1 MOL      0.612860
    135 O18        -4.7680    1.0230   -1.7130 o         1 MOL     -0.567999
    136 C45        -6.3500    0.4470    1.2930 c3        1 MOL     -0.299983
    137 H62        -3.9830   -0.1130    1.4950 hn        1 MOL      0.295457
    138 H63        -6.0880   -1.3400    0.0420 h1        1 MOL      0.094045
    139 H64        -7.3820    0.5440    0.9580 hc        1 MOL      0.095162
    140 H65        -6.2130   -0.0520    2.2550 hc        1 MOL      0.095162
    141 H66        -5.9150    1.4450    1.2560 hc        1 MOL      0.095162
    142 N13        -6.8300    0.4000   -1.9840 n         1 MOL     -0.591738
    143 C46        -8.0510   -0.3950   -1.8350 c3        1 MOL      0.369697
    144 C47        -9.2300    0.2740   -2.5620 c         1 MOL      0.469654
    145 O19        -8.9850    0.9800   -3.5120 o         1 MOL     -0.511983
    146 C48        -7.7600   -1.8630   -2.1960 c3        1 MOL     -0.282220
    147 H67        -6.7020    0.8110   -2.8930 hn        1 MOL      0.308880
    148 H68        -8.2330   -0.3670   -0.7500 h1        1 MOL     -0.075344
    149 H69        -7.7940   -2.0690   -3.2660 hc        1 MOL      0.077389
    150 H70        -6.7620   -2.1520   -1.8600 hc        1 MOL      0.077389
    151 H71        -8.4220   -2.5760   -1.7050 hc        1 MOL      0.077389
    152 N14       -10.5240   -0.0360   -2.1730 n         1 MOL     -0.489208
    153 C49       -10.9100   -0.5600   -0.8360 c3        1 MOL     -0.335476
    154 C50       -10.4020    0.4380    0.2250 c         1 MOL      0.543918
    155 O20        -9.9360    0.0060    1.2450 o         1 MOL     -0.522223
    156 C51       -12.4620   -0.7250   -0.9030 c3        1 MOL      0.277327
    157 C52       -12.9830   -1.3340    0.4490 c3        1 MOL     -0.385372
    158 C53       -14.4910   -1.2870    0.5010 c         1 MOL      0.720059
    159 O21       -15.1740   -2.0430   -0.1800 o         1 MOL     -0.662399
    160 O22       -15.0090   -0.2680    1.0940 o         1 MOL     -0.662399
    161 H72       -11.2690    0.4990   -2.6240 hn        1 MOL      0.302715
    162 H73       -10.3670   -1.5080   -0.7280 h1        1 MOL      0.184329
    163 H74       -12.6990   -1.4060   -1.7180 hc        1 MOL      0.003304
    164 H75       -12.9480    0.2080   -1.1700 hc        1 MOL      0.003304
    165 H76       -12.6150   -0.7880    1.3260 hc        1 MOL      0.087152
    166 H77       -12.7600   -2.4000    0.5200 hc        1 MOL      0.087152
    167 N15       -10.2810    1.7180   -0.1060 n         1 MOL     -0.266207
    168 C54        -9.5570    2.6950    0.6970 c3        1 MOL     -0.093512
    169 H78        -8.6620    3.0120    0.1620 h1        1 MOL      0.067772
    170 H79       -10.1940    3.5600    0.8810 h1        1 MOL      0.067772
    171 H80        -9.2710    2.2450    1.6470 h1        1 MOL      0.067772
    172 H81       -10.8140    2.0550   -0.9070 hn        1 MOL      0.261975
    173 Ca1         2.5660    0.4260   -1.1360 Ca        1 MOL      1.785117
    174 O23         1.2960   -1.7820   -1.7900 oh        1 MOL     -0.872677
    175 H82         1.9420   -2.0110   -2.4530 ho        1 MOL      0.428751
    176 H83         0.4620   -1.7780   -2.2620 ho        1 MOL      0.428751
    177 O24         3.2820    2.2930   -3.1020 oh        1 MOL     -0.872677
    178 H84         3.6150    3.1920   -3.0420 ho        1 MOL      0.428751
    179 H85         2.9260    2.2340   -3.9900 ho        1 MOL      0.428751
    180 O25         0.3190    0.9730   -2.6040 oh        1 MOL     -0.872677
    181 H86        -0.6000    1.0830   -2.3280 ho        1 MOL      0.428751
    182 H87         0.3220    1.2660   -3.5140 ho        1 MOL      0.428751
@<TRIPOS>BOND
     1    1    2 1   
     2    1    4 1   
     3    1    5 1   
     4    1    6 1   
     5    2    3 2   
     6    2    7 1   
     7    7    8 1   
     8    7   15 1   
     9    8    9 1   
    10    8   11 1   
    11    8   16 1   
    12    9   10 2   
    13    9   19 1   
    14   11   12 1   
    15   11   17 1   
    16   11   18 1   
    17   12   13 1   
    18   12   14 1   
    19   19   20 1   
    20   19   28 1   
    21   20   21 1   
    22   20   23 1   
    23   20   29 1   
    24   21   22 2   
    25   21   41 1   
    26   23   24 1   
    27   23   30 1   
    28   23   31 1   
    29   24   25 1   
    30   24   32 1   
    31   24   33 1   
    32   25   26 1   
    33   25   34 1   
    34   25   35 1   
    35   26   27 1   
    36   26   36 1   
    37   26   37 1   
    38   27   38 1   
    39   27   39 1   
    40   27   40 1   
    41   41   42 1   
    42   41   49 1   
    43   42   43 1   
    44   42   45 1   
    45   42   50 1   
    46   43   44 2   
    47   43   53 1   
    48   45   46 1   
    49   45   51 1   
    50   45   52 1   
    51   46   47 1   
    52   46   48 1   
    53   53   54 1   
    54   53   57 1   
    55   54   55 1   
    56   54   58 1   
    57   54   59 1   
    58   55   56 2   
    59   55   60 1   
    60   60   61 1   
    61   60   68 1   
    62   61   62 1   
    63   61   64 1   
    64   61   69 1   
    65   62   63 2   
    66   62   74 1   
    67   64   65 1   
    68   64   70 1   
    69   64   71 1   
    70   65   66 1   
    71   65   67 2   
    72   66   72 1   
    73   66   73 1   
    74   74   75 1   
    75   74   78 1   
    76   75   76 1   
    77   75   79 1   
    78   75   80 1   
    79   76   77 2   
    80   76   81 1   
    81   81   82 1   
    82   81   93 1   
    83   82   83 1   
    84   82   85 1   
    85   82   94 1   
    86   83   84 2   
    87   83  102 1   
    88   85   86 1   
    89   85   95 1   
    90   85   96 1   
    91   86   87 ar  
    92   86   88 ar  
    93   87   89 ar  
    94   87   97 1   
    95   88   90 ar  
    96   88   98 1   
    97   89   91 ar  
    98   89   99 1   
    99   90   91 ar  
   100   90  100 1   
   101   91   92 1   
   102   92  101 1   
   103  102  103 1   
   104  102  110 1   
   105  103  104 1   
   106  103  106 1   
   107  103  111 1   
   108  104  105 2   
   109  104  121 1   
   110  106  107 1   
   111  106  108 1   
   112  106  112 1   
   113  107  109 1   
   114  107  113 1   
   115  107  114 1   
   116  108  115 1   
   117  108  116 1   
   118  108  117 1   
   119  109  118 1   
   120  109  119 1   
   121  109  120 1   
   122  121  122 1   
   123  121  127 1   
   124  122  123 1   
   125  122  125 1   
   126  122  128 1   
   127  123  124 2   
   128  123  132 1   
   129  125  126 1   
   130  125  129 1   
   131  125  130 1   
   132  126  131 1   
   133  132  133 1   
   134  132  137 1   
   135  133  134 1   
   136  133  136 1   
   137  133  138 1   
   138  134  135 2   
   139  134  142 1   
   140  136  139 1   
   141  136  140 1   
   142  136  141 1   
   143  142  143 1   
   144  142  147 1   
   145  143  144 1   
   146  143  146 1   
   147  143  148 1   
   148  144  145 2   
   149  144  152 1   
   150  146  149 1   
   151  146  150 1   
   152  146  151 1   
   153  152  153 1   
   154  152  161 1   
   155  153  154 1   
   156  153  156 1   
   157  153  162 1   
   158  154  155 2   
   159  154  167 1   
   160  156  157 1   
   161  156  163 1   
   162  156  164 1   
   163  157  158 1   
   164  157  165 1   
   165  157  166 1   
   166  158  159 1   
   167  158  160 1   
   168  167  168 1   
   169  167  172 1   
   170  168  169 1   
   171  168  170 1   
   172  168  171 1   
   173  174  175 1   
   174  174  176 1   
   175  177  178 1   
   176  177  179 1   
   177  180  181 1   
   178  180  182 1   
@<TRIPOS>SUBSTRUCTURE
     1 MOL         1 TEMP              0 ****  ****    0 ROOT
