@<TRIPOS>MOLECULE
MOL
  182   178     1     0     0
SMALL
resp


@<TRIPOS>ATOM
      1 C1         -2.6530   -2.7890    5.5780 c3        1 MOL     -0.257052
      2 C2         -2.1100   -2.6920    4.1390 c         1 MOL      0.648627
      3 O1         -2.8840   -2.5670    3.2140 o         1 MOL     -0.579034
      4 H1         -3.3690   -3.6080    5.6400 hc        1 MOL      0.070331
      5 H2         -1.8280   -2.9750    6.2660 hc        1 MOL      0.070331
      6 H3         -3.1460   -1.8550    5.8450 hc        1 MOL      0.070331
      7 N1         -0.7790   -2.7280    3.9290 n         1 MOL     -0.525507
      8 C3         -0.0770   -2.6610    2.6940 c3        1 MOL      0.066867
      9 C4         -0.1060   -4.0140    2.0370 c         1 MOL      0.539340
     10 O2          0.5620   -4.9480    2.4560 o         1 MOL     -0.554459
     11 C5          1.2580   -2.0580    2.9510 c3        1 MOL     -0.141432
     12 C6          2.0170   -1.8600    1.6260 c         1 MOL      0.519047
     13 O3          3.0630   -1.1250    1.6550 o         1 MOL     -0.635270
     14 O4          1.4490   -2.0950    0.5300 o         1 MOL     -0.635270
     15 H4         -0.1570   -2.7940    4.7270 hn        1 MOL      0.309268
     16 H5         -0.6610   -2.0130    2.0380 h1        1 MOL      0.045987
     17 H6          1.8280   -2.7850    3.5210 hc        1 MOL      0.044715
     18 H7          1.0530   -1.1130    3.4580 hc        1 MOL      0.044715
     19 N2         -0.9380   -4.2070    1.0550 n         1 MOL     -0.255557
     20 C7         -1.0590   -5.4860    0.3900 c3        1 MOL     -0.120279
     21 C8          0.1410   -5.7530   -0.4860 c         1 MOL      0.577740
     22 O5          0.2730   -6.9870   -0.6990 o         1 MOL     -0.578261
     23 C9         -2.3550   -5.4420   -0.4180 c3        1 MOL     -0.061105
     24 C10        -2.8130   -6.6750   -1.2530 c3        1 MOL      0.033730
     25 C11        -4.3450   -6.5840   -1.6920 c3        1 MOL     -0.036810
     26 C12        -4.8340   -7.6390   -2.7780 c3        1 MOL     -0.160367
     27 N3         -4.0820   -7.6020   -3.9840 n4        1 MOL     -0.179563
     28 H8         -1.5660   -3.4520    0.8110 hn        1 MOL      0.224310
     29 H9         -1.0910   -6.2960    1.1160 h1        1 MOL      0.151601
     30 H10        -2.3510   -4.5490   -1.0520 hc        1 MOL      0.040838
     31 H11        -3.2510   -5.3610    0.1920 hc        1 MOL      0.040838
     32 H12        -2.7420   -7.5860   -0.6480 hc        1 MOL      0.014515
     33 H13        -2.1840   -6.8020   -2.1390 hc        1 MOL      0.014515
     34 H14        -4.4360   -5.5560   -2.0430 hc        1 MOL      0.058575
     35 H15        -4.9680   -6.6870   -0.8090 hc        1 MOL      0.058575
     36 H16        -5.8780   -7.4070   -2.9790 hx        1 MOL      0.142099
     37 H17        -4.8730   -8.6280   -2.3220 hx        1 MOL      0.142099
     38 H18        -3.1500   -7.9310   -3.8020 hn        1 MOL      0.248326
     39 H19        -4.4430   -8.1310   -4.7620 hn        1 MOL      0.248326
     40 H20        -3.9500   -6.6930   -4.3950 hn        1 MOL      0.248326
     41 N4          1.0010   -4.7890   -0.8980 n         1 MOL     -0.395410
     42 C13         2.2490   -5.1490   -1.6380 c3        1 MOL      0.215592
     43 C14         3.4690   -5.2800   -0.6860 c         1 MOL      0.308163
     44 O6          4.3230   -6.2010   -0.7660 o         1 MOL     -0.542793
     45 C15         2.5220   -4.1630   -2.7690 c3        1 MOL     -0.562726
     46 C16         2.5580   -2.7640   -2.2100 c         1 MOL      0.854890
     47 O7          3.3760   -2.3350   -1.4390 o         1 MOL     -0.780545
     48 O8          1.6230   -1.9790   -2.4600 o         1 MOL     -0.780545
     49 H21         0.8170   -3.8370   -0.6240 hn        1 MOL      0.192926
     50 H22         2.1730   -6.0890   -2.1920 h1        1 MOL      0.071583
     51 H23         1.7560   -4.3000   -3.5290 hc        1 MOL      0.156229
     52 H24         3.4490   -4.2850   -3.3360 hc        1 MOL      0.156229
     53 N5          3.5290   -4.4120    0.3430 n         1 MOL      0.139492
     54 C17         4.5220   -4.2780    1.3750 c3        1 MOL     -0.487398
     55 C18         5.7610   -3.4580    1.0490 c         1 MOL      0.710847
     56 O9          6.6720   -3.4030    1.8460 o         1 MOL     -0.561866
     57 H25         2.9000   -3.6370    0.2100 hn        1 MOL      0.026666
     58 H26         4.7450   -5.3130    1.6400 h1        1 MOL      0.179822
     59 H27         4.0220   -3.8810    2.2570 h1        1 MOL      0.179822
     60 N6          5.8160   -2.6690   -0.0640 n         1 MOL     -0.506188
     61 C19         6.8130   -1.6150   -0.3410 c3        1 MOL      0.086077
     62 C20         6.2790   -0.1930   -0.5780 c         1 MOL      0.688246
     63 O10         5.0760   -0.0190   -0.7430 o         1 MOL     -0.505014
     64 C21         7.6360   -2.2720   -1.4860 c3        1 MOL     -0.193413
     65 C22         6.8730   -2.4960   -2.7570 c         1 MOL      0.659347
     66 N7          6.3460   -3.6250   -3.0820 n         1 MOL     -0.756902
     67 O11         6.6270   -1.5230   -3.4920 o         1 MOL     -0.588735
     68 H28         4.9570   -2.6500   -0.5940 hn        1 MOL      0.366931
     69 H29         7.4920   -1.5310    0.5020 h1        1 MOL      0.037256
     70 H30         8.0390   -3.2400   -1.2040 hc        1 MOL      0.045948
     71 H31         8.4350   -1.5890   -1.7830 hc        1 MOL      0.045948
     72 H32         6.4090   -4.4680   -2.5210 hn        1 MOL      0.353404
     73 H33         5.7000   -3.6210   -3.8530 hn        1 MOL      0.353404
     74 N8          7.2420    0.7370   -0.6460 n         1 MOL     -0.558364
     75 C23         7.1100    2.1950   -0.9120 c3        1 MOL     -0.035702
     76 C24         6.0220    2.9650   -0.0950 c         1 MOL      0.620059
     77 O12         6.0230    2.8420    1.1110 o         1 MOL     -0.504159
     78 H34         8.1940    0.4550   -0.4730 hn        1 MOL      0.357536
     79 H35         6.9420    2.3890   -1.9760 h1        1 MOL      0.070711
     80 H36         8.0460    2.6990   -0.6630 h1        1 MOL      0.070711
     81 N9          5.0790    3.6900   -0.7040 n         1 MOL     -0.650329
     82 C25         3.9810    4.3210    0.0440 c3        1 MOL      0.087336
     83 C26         3.2790    3.2410    0.9090 c         1 MOL      0.481097
     84 O13         3.3410    1.9960    0.6840 o         1 MOL     -0.577669
     85 C27         3.0210    5.0690   -0.9090 c3        1 MOL      0.230783
     86 C28         3.3410    6.3570   -1.5360 ca        1 MOL     -0.036928
     87 C29         3.3300    7.5170   -0.7370 ca        1 MOL     -0.152242
     88 C30         3.3740    6.5210   -2.9350 ca        1 MOL     -0.152242
     89 C31         3.4840    8.8140   -1.3260 ca        1 MOL     -0.209753
     90 C32         3.5630    7.7620   -3.4950 ca        1 MOL     -0.209753
     91 C33         3.6320    8.9290   -2.7490 ca        1 MOL      0.292925
     92 O14         4.0520   10.1070   -3.3280 oh        1 MOL     -0.456290
     93 H37         5.1800    3.8050   -1.7000 hn        1 MOL      0.311223
     94 H38         4.3030    5.1200    0.7160 h1        1 MOL      0.078427
     95 H39         2.0830    5.1920   -0.3550 hc        1 MOL     -0.035786
     96 H40         2.7000    4.3790   -1.6860 hc        1 MOL     -0.035786
     97 H41         3.1850    7.3380    0.3180 ha        1 MOL      0.110760
     98 H42         3.2730    5.6700   -3.5760 ha        1 MOL      0.110760
     99 H43         3.5580    9.6910   -0.6880 ha        1 MOL      0.148242
    100 H44         3.7430    7.8430   -4.5570 ha        1 MOL      0.148242
    101 H45         4.4200    9.9120   -4.1920 ho        1 MOL      0.351917
    102 N10         2.5420    3.7010    1.9300 n         1 MOL     -0.601908
    103 C34         1.7590    2.9100    2.8210 c3        1 MOL      0.314017
    104 C35         0.7000    1.9330    2.2070 c         1 MOL      0.287753
    105 O15         0.9250    1.1380    1.2670 o         1 MOL     -0.367819
    106 C36         2.6350    2.1850    3.8890 c3        1 MOL      0.332111
    107 C37         1.8150    1.6250    5.0670 c3        1 MOL     -0.289221
    108 C38         3.9270    2.9460    4.3560 c3        1 MOL     -0.179788
    109 C39         1.2140    2.6930    5.9950 c3        1 MOL     -0.016986
    110 H46         2.7660    4.6630    2.1650 hn        1 MOL      0.306044
    111 H47         1.1800    3.6270    3.4150 h1        1 MOL     -0.005965
    112 H48         2.9850    1.2160    3.5370 hc        1 MOL     -0.033276
    113 H49         2.3850    0.9520    5.7000 hc        1 MOL      0.092514
    114 H50         1.1360    0.9230    4.5760 hc        1 MOL      0.092514
    115 H51         4.7790    2.8230    3.6850 hc        1 MOL      0.044807
    116 H52         3.7670    4.0020    4.5720 hc        1 MOL      0.044807
    117 H53         4.2250    2.4560    5.2810 hc        1 MOL      0.044807
    118 H54         1.7310    2.8220    6.9480 hc        1 MOL     -0.002495
    119 H55         1.0990    3.6190    5.4240 hc        1 MOL     -0.002495
    120 H56         0.1530    2.5020    6.1320 hc        1 MOL     -0.002495
    121 N11        -0.5090    1.9360    2.7070 n         1 MOL     -0.486771
    122 C40        -1.6770    1.0530    2.5810 c3        1 MOL      0.022845
    123 C41        -2.7930    1.3970    1.6820 c         1 MOL      0.562202
    124 O16        -3.5580    0.4430    1.3790 o         1 MOL     -0.535050
    125 C42        -2.2260    0.6300    3.9170 c3        1 MOL      0.320473
    126 O17        -2.5610    1.7810    4.5170 oh        1 MOL     -0.657407
    127 H57        -0.6410    2.6170    3.4530 hn        1 MOL      0.309213
    128 H58        -1.3360    0.1120    2.1720 h1        1 MOL      0.073314
    129 H59        -1.4320    0.2150    4.5360 h1        1 MOL      0.008447
    130 H60        -3.0910   -0.0210    3.7740 h1        1 MOL      0.008447
    131 H61        -3.2980    1.7220    5.1270 ho        1 MOL      0.424395
    132 N12        -2.9870    2.6480    1.1650 n         1 MOL     -0.407376
    133 C43        -4.0400    2.9850    0.2400 c3        1 MOL      0.026628
    134 C44        -3.6910    3.0680   -1.2400 c         1 MOL      0.596590
    135 O18        -2.7630    3.7290   -1.5840 o         1 MOL     -0.547149
    136 C45        -4.4980    4.3030    0.8530 c3        1 MOL     -0.242272
    137 H62        -2.5340    3.4590    1.5540 hn        1 MOL      0.274657
    138 H63        -4.8600    2.2770    0.3820 h1        1 MOL      0.082107
    139 H64        -5.2230    4.1820    1.6590 hc        1 MOL      0.076985
    140 H65        -3.7040    4.8340    1.3770 hc        1 MOL      0.076985
    141 H66        -4.9310    4.9900    0.1250 hc        1 MOL      0.076985
    142 N13        -4.3890    2.3440   -2.1420 n         1 MOL     -0.553229
    143 C46        -5.5670    1.5480   -1.9430 c3        1 MOL      0.444575
    144 C47        -6.8110    2.2060   -2.5230 c         1 MOL      0.333885
    145 O19        -6.8220    2.9430   -3.5180 o         1 MOL     -0.536280
    146 C48        -5.2920    0.1090   -2.4700 c3        1 MOL     -0.289011
    147 H67        -4.2260    2.6310   -3.1020 hn        1 MOL      0.290617
    148 H68        -5.7260    1.3430   -0.8880 h1        1 MOL     -0.000661
    149 H69        -5.5960    0.1030   -3.5190 hc        1 MOL      0.068354
    150 H70        -4.2450   -0.1940   -2.3690 hc        1 MOL      0.068354
    151 H71        -5.9240   -0.5950   -1.9290 hc        1 MOL      0.068354
    152 N14        -8.0150    2.1160   -1.9350 n         1 MOL     -0.296821
    153 C49        -8.3320    1.7130   -0.6140 c3        1 MOL     -0.378046
    154 C50        -8.5130    2.9600    0.3630 c         1 MOL      0.450073
    155 O20        -8.4270    2.8750    1.6030 o         1 MOL     -0.515910
    156 C51        -9.6470    0.9390   -0.6240 c3        1 MOL      0.320670
    157 C52        -9.4900   -0.4750   -1.1050 c3        1 MOL     -0.312428
    158 C53       -10.7200   -1.3470   -1.1740 c         1 MOL      0.748695
    159 O21       -10.5630   -2.5040   -1.5980 o         1 MOL     -0.694098
    160 O22       -11.8680   -0.8760   -0.9190 o         1 MOL     -0.694098
    161 H72        -8.7720    2.6630   -2.3260 hn        1 MOL      0.307747
    162 H73        -7.6040    1.0410   -0.1570 h1        1 MOL      0.192625
    163 H74       -10.3240    1.4080   -1.3370 hc        1 MOL     -0.027717
    164 H75       -10.1200    1.0360    0.3550 hc        1 MOL     -0.027717
    165 H76        -8.7030   -0.9470   -0.5040 hc        1 MOL      0.043954
    166 H77        -9.1790   -0.4640   -2.1470 hc        1 MOL      0.043954
    167 N15        -8.7750    4.1090   -0.2120 n         1 MOL     -0.236596
    168 C54        -9.1760    5.3280    0.4730 c3        1 MOL     -0.265444
    169 H78        -9.7130    5.0710    1.3860 h1        1 MOL      0.121869
    170 H79        -8.2900    5.9120    0.7250 h1        1 MOL      0.121869
    171 H80        -9.8250    5.9150   -0.1770 h1        1 MOL      0.121869
    172 H81        -8.7970    4.0930   -1.2230 hn        1 MOL      0.234682
    173 Ca1         2.4000   -0.0400   -0.7670 Ca        1 MOL      1.806021
    174 O23        -0.1950   -0.4330   -1.1320 oh        1 MOL     -0.850583
    175 H82        -0.6680   -1.0710   -0.5870 ho        1 MOL      0.415575
    176 H83        -0.3720   -0.7210   -2.0290 ho        1 MOL      0.415575
    177 O24         3.6150    0.4660   -3.4030 oh        1 MOL     -0.850583
    178 H84         4.3700    0.6660   -3.9670 ho        1 MOL      0.415575
    179 H85         2.8800    0.9180   -3.8140 ho        1 MOL      0.415575
    180 O25         1.1810    1.9530   -2.1180 oh        1 MOL     -0.850583
    181 H86         0.4350    1.8410   -2.7220 ho        1 MOL      0.415575
    182 H87         1.2680    2.9070   -2.0340 ho        1 MOL      0.415575
@<TRIPOS>BOND
     1    1    2 1   
     2    1    4 1   
     3    1    5 1   
     4    1    6 1   
     5    2    3 2   
     6    2    7 1   
     7    7    8 1   
     8    7   15 1   
     9    8    9 1   
    10    8   11 1   
    11    8   16 1   
    12    9   10 2   
    13    9   19 1   
    14   11   12 1   
    15   11   17 1   
    16   11   18 1   
    17   12   13 1   
    18   12   14 1   
    19   19   20 1   
    20   19   28 1   
    21   20   21 1   
    22   20   23 1   
    23   20   29 1   
    24   21   22 2   
    25   21   41 1   
    26   23   24 1   
    27   23   30 1   
    28   23   31 1   
    29   24   25 1   
    30   24   32 1   
    31   24   33 1   
    32   25   26 1   
    33   25   34 1   
    34   25   35 1   
    35   26   27 1   
    36   26   36 1   
    37   26   37 1   
    38   27   38 1   
    39   27   39 1   
    40   27   40 1   
    41   41   42 1   
    42   41   49 1   
    43   42   43 1   
    44   42   45 1   
    45   42   50 1   
    46   43   44 2   
    47   43   53 1   
    48   45   46 1   
    49   45   51 1   
    50   45   52 1   
    51   46   47 1   
    52   46   48 1   
    53   53   54 1   
    54   53   57 1   
    55   54   55 1   
    56   54   58 1   
    57   54   59 1   
    58   55   56 2   
    59   55   60 1   
    60   60   61 1   
    61   60   68 1   
    62   61   62 1   
    63   61   64 1   
    64   61   69 1   
    65   62   63 2   
    66   62   74 1   
    67   64   65 1   
    68   64   70 1   
    69   64   71 1   
    70   65   66 1   
    71   65   67 2   
    72   66   72 1   
    73   66   73 1   
    74   74   75 1   
    75   74   78 1   
    76   75   76 1   
    77   75   79 1   
    78   75   80 1   
    79   76   77 2   
    80   76   81 1   
    81   81   82 1   
    82   81   93 1   
    83   82   83 1   
    84   82   85 1   
    85   82   94 1   
    86   83   84 2   
    87   83  102 1   
    88   85   86 1   
    89   85   95 1   
    90   85   96 1   
    91   86   87 ar  
    92   86   88 ar  
    93   87   89 ar  
    94   87   97 1   
    95   88   90 ar  
    96   88   98 1   
    97   89   91 ar  
    98   89   99 1   
    99   90   91 ar  
   100   90  100 1   
   101   91   92 1   
   102   92  101 1   
   103  102  103 1   
   104  102  110 1   
   105  103  104 1   
   106  103  106 1   
   107  103  111 1   
   108  104  105 2   
   109  104  121 1   
   110  106  107 1   
   111  106  108 1   
   112  106  112 1   
   113  107  109 1   
   114  107  113 1   
   115  107  114 1   
   116  108  115 1   
   117  108  116 1   
   118  108  117 1   
   119  109  118 1   
   120  109  119 1   
   121  109  120 1   
   122  121  122 1   
   123  121  127 1   
   124  122  123 1   
   125  122  125 1   
   126  122  128 1   
   127  123  124 2   
   128  123  132 1   
   129  125  126 1   
   130  125  129 1   
   131  125  130 1   
   132  126  131 1   
   133  132  133 1   
   134  132  137 1   
   135  133  134 1   
   136  133  136 1   
   137  133  138 1   
   138  134  135 2   
   139  134  142 1   
   140  136  139 1   
   141  136  140 1   
   142  136  141 1   
   143  142  143 1   
   144  142  147 1   
   145  143  144 1   
   146  143  146 1   
   147  143  148 1   
   148  144  145 2   
   149  144  152 1   
   150  146  149 1   
   151  146  150 1   
   152  146  151 1   
   153  152  153 1   
   154  152  161 1   
   155  153  154 1   
   156  153  156 1   
   157  153  162 1   
   158  154  155 2   
   159  154  167 1   
   160  156  157 1   
   161  156  163 1   
   162  156  164 1   
   163  157  158 1   
   164  157  165 1   
   165  157  166 1   
   166  158  159 1   
   167  158  160 1   
   168  167  168 1   
   169  167  172 1   
   170  168  169 1   
   171  168  170 1   
   172  168  171 1   
   173  174  175 1   
   174  174  176 1   
   175  177  178 1   
   176  177  179 1   
   177  180  181 1   
   178  180  182 1   
@<TRIPOS>SUBSTRUCTURE
     1 MOL         1 TEMP              0 ****  ****    0 ROOT
