@<TRIPOS>MOLECULE
MOL
  192   187     1     0     0
SMALL
resp


@<TRIPOS>ATOM
      1 C1         -3.9480    5.0830    2.6820 c3        1 MOL     -0.223507
      2 C2         -4.6830    4.0480    1.8650 c         1 MOL      0.873247
      3 O1         -4.0210    3.3710    1.0420 o         1 MOL     -0.706160
      4 H1         -4.5790    5.9630    2.8050 hc        1 MOL      0.051311
      5 H2         -3.7060    4.6700    3.6600 hc        1 MOL      0.051311
      6 H3         -3.0290    5.3650    2.1680 hc        1 MOL      0.051311
      7 N1         -5.9520    3.7710    2.0740 n         1 MOL     -0.843842
      8 C3         -6.7320    2.5260    1.7310 c3        1 MOL      0.320511
      9 C4         -5.8760    1.2450    1.5900 c         1 MOL      0.164138
     10 O2         -5.5940    0.9390    0.4300 o         1 MOL     -0.326391
     11 C5         -7.6650    2.7600    0.4680 c3        1 MOL     -0.087223
     12 C6         -7.1830    3.5170   -0.7220 c         1 MOL      0.731859
     13 O3         -5.9710    3.6050   -1.0110 o         1 MOL     -0.723554
     14 O4         -8.0160    4.1250   -1.4530 o         1 MOL     -0.723554
     15 H4         -6.5060    4.4300    2.6140 hn        1 MOL      0.363924
     16 H5         -7.4180    2.3240    2.5560 h1        1 MOL     -0.004967
     17 H6         -8.5550    3.2860    0.7930 hc        1 MOL      0.013169
     18 H7         -8.0480    1.8000    0.1370 hc        1 MOL      0.013169
     19 N2         -5.5030    0.6180    2.6640 n         1 MOL     -0.297515
     20 C7         -4.8360   -0.6310    2.8930 c3        1 MOL      0.077816
     21 C8         -5.5300   -1.8450    2.2180 c         1 MOL      0.304702
     22 O5         -5.7580   -2.8740    2.8730 o         1 MOL     -0.500335
     23 C9         -3.2400   -0.5250    2.6690 c3        1 MOL      0.236305
     24 C10        -2.5070   -1.8290    2.8610 c3        1 MOL     -0.104585
     25 C11        -2.6990    0.6570    3.4790 c3        1 MOL     -0.218815
     26 C12        -2.5410   -2.4150    4.2560 c3        1 MOL     -0.182971
     27 H8         -5.7700    1.1440    3.4890 hn        1 MOL      0.270172
     28 H9         -4.8270   -0.9240    3.9480 h1        1 MOL      0.010853
     29 H10        -3.1090   -0.2710    1.6190 hc        1 MOL     -0.137544
     30 H11        -1.4810   -1.6420    2.5350 hc        1 MOL      0.070963
     31 H12        -2.9400   -2.5640    2.1960 hc        1 MOL      0.070963
     32 H13        -3.2790    0.7750    4.3970 hc        1 MOL      0.047812
     33 H14        -1.6310    0.5910    3.6760 hc        1 MOL      0.047812
     34 H15        -2.8520    1.6530    3.0420 hc        1 MOL      0.047812
     35 H16        -3.4660   -2.9520    4.4640 hc        1 MOL      0.044970
     36 H17        -1.8560   -3.2680    4.2800 hc        1 MOL      0.044970
     37 H18        -2.2670   -1.7050    5.0470 hc        1 MOL      0.044970
     38 N3         -6.0020   -1.7700    0.9450 n         1 MOL     -0.056172
     39 C13        -7.0540   -2.7300    0.5110 c3        1 MOL      0.026787
     40 C14        -6.5600   -4.2040    0.3410 c         1 MOL      0.563658
     41 O6         -7.1090   -5.1430    0.8840 o         1 MOL     -0.597070
     42 C15        -7.7390   -2.3010   -0.8040 c3        1 MOL     -0.137968
     43 C16        -8.7540   -1.2010   -0.5810 c         1 MOL      0.724646
     44 O7         -8.8390   -0.3450   -1.4970 o         1 MOL     -0.706529
     45 O8         -9.5620   -1.2350    0.3430 o         1 MOL     -0.706529
     46 H19        -5.7160   -0.9160    0.4840 hn        1 MOL      0.151454
     47 H20        -7.7960   -2.8520    1.3040 h1        1 MOL      0.043330
     48 H21        -8.1880   -3.2470   -1.1380 hc        1 MOL      0.005392
     49 H22        -6.9390   -2.0160   -1.4950 hc        1 MOL      0.005392
     50 N4         -5.4310   -4.5400   -0.3060 n         1 MOL     -0.498011
     51 C17        -4.4950   -3.5880   -1.0250 c3        1 MOL      0.033118
     52 C18        -4.7360   -3.6820   -2.4870 c         1 MOL      0.653138
     53 O9         -5.5110   -4.4480   -2.9830 o         1 MOL     -0.565528
     54 H23        -5.1740   -5.5050   -0.1630 hn        1 MOL      0.304559
     55 H24        -3.4890   -3.8780   -0.7480 h1        1 MOL      0.017188
     56 H25        -4.6590   -2.5250   -0.8360 h1        1 MOL      0.017188
     57 N5         -3.9690   -2.8800   -3.2060 n         1 MOL     -0.451912
     58 C19        -2.5760   -2.4280   -2.9060 c3        1 MOL      0.091898
     59 C20        -2.5410   -1.1680   -1.9710 c         1 MOL      0.221276
     60 O10        -3.4750   -0.3600   -1.9640 o         1 MOL     -0.453706
     61 C21        -1.8960   -2.1490   -4.2680 c3        1 MOL     -0.231837
     62 C22        -1.8670   -3.2690   -5.2860 c         1 MOL      0.663274
     63 O11        -2.9610   -3.5180   -5.8810 o         1 MOL     -0.704097
     64 O12        -0.8080   -3.9180   -5.3650 o         1 MOL     -0.704097
     65 H26        -4.2330   -2.6900   -4.1660 hn        1 MOL      0.272100
     66 H27        -2.0330   -3.2340   -2.4200 h1        1 MOL      0.098090
     67 H28        -0.8490   -1.9140   -4.0550 hc        1 MOL      0.043649
     68 H29        -2.3850   -1.2440   -4.6160 hc        1 MOL      0.043649
     69 N6         -1.5600   -1.0300   -1.1960 n         1 MOL     -0.028722
     70 C23        -0.2120   -1.6690   -1.1700 c3        1 MOL     -0.109475
     71 C24        -0.1830   -2.8960   -0.3580 c         1 MOL      0.444583
     72 O13        -1.1580   -3.5640   -0.1620 o         1 MOL     -0.491435
     73 H30        -1.5710   -0.2170   -0.6030 hn        1 MOL      0.127415
     74 H31         0.5280   -1.1150   -0.5930 h1        1 MOL      0.033368
     75 H32         0.1890   -1.8260   -2.1810 h1        1 MOL      0.033368
     76 N7          1.0520   -3.2460    0.0560 n         1 MOL     -0.321022
     77 C25         1.4060   -4.4800    0.7630 c3        1 MOL     -0.014580
     78 C26         2.1750   -4.1960    2.0920 c         1 MOL      0.331820
     79 O14         2.7150   -5.1560    2.7080 o         1 MOL     -0.497672
     80 C27         2.2510   -5.4350   -0.0830 c3        1 MOL     -0.025692
     81 C28         3.5410   -4.8320   -0.6630 c3        1 MOL     -0.209652
     82 C29         4.0380   -5.7050   -1.7680 c         1 MOL      0.615375
     83 N8          3.3790   -5.5730   -2.8660 n         1 MOL     -0.704887
     84 O15         5.0270   -6.4850   -1.7240 o         1 MOL     -0.578356
     85 H33         1.6890   -2.5090   -0.2030 hn        1 MOL      0.291670
     86 H34         0.5160   -5.0320    1.0660 h1        1 MOL      0.129187
     87 H35         1.7200   -5.7120   -0.9980 hc        1 MOL      0.062026
     88 H36         2.5210   -6.3440    0.4590 hc        1 MOL      0.062026
     89 H37         4.3720   -4.7550    0.0420 hc        1 MOL      0.047263
     90 H38         3.3980   -3.8280   -1.0720 hc        1 MOL      0.047263
     91 H39         2.7290   -4.8040   -2.8660 hn        1 MOL      0.358129
     92 H40         3.5750   -6.1070   -3.6980 hn        1 MOL      0.358129
     93 N9          2.2510   -2.9380    2.5290 n         1 MOL     -0.053946
     94 C30         2.9490   -2.5710    3.7570 c3        1 MOL     -0.089104
     95 C31         4.4250   -2.0060    3.5950 c         1 MOL      0.461793
     96 O16         5.2250   -2.0510    4.5360 o         1 MOL     -0.492910
     97 C32         2.1790   -1.6510    4.6860 c3        1 MOL      0.045682
     98 C33         0.6940   -2.1000    5.0320 c3        1 MOL     -0.029352
     99 C34         1.9440   -0.3420    3.9910 c3        1 MOL     -0.029352
    100 H41         1.8520   -2.2300    1.9300 hn        1 MOL      0.128031
    101 H42         3.1200   -3.4670    4.3490 h1        1 MOL      0.115980
    102 H43         2.8000   -1.4380    5.5610 hc        1 MOL      0.018119
    103 H44         0.1550   -1.3640    5.6300 hc        1 MOL     -0.001060
    104 H45         0.1880   -2.3290    4.0950 hc        1 MOL     -0.001060
    105 H46         0.7040   -3.0220    5.6180 hc        1 MOL     -0.001060
    106 H47         1.5110    0.4490    4.6040 hc        1 MOL     -0.001060
    107 H48         2.8400    0.2270    3.7580 hc        1 MOL     -0.001060
    108 H49         1.4320   -0.5030    3.0380 hc        1 MOL     -0.001060
    109 N10         4.7990   -1.8180    2.3120 n         1 MOL     -0.292723
    110 C35         6.1570   -1.3460    1.8500 c3        1 MOL     -0.059403
    111 C36         6.1800    0.1960    1.4690 c         1 MOL      0.625274
    112 O17         6.6620    1.0290    2.1840 o         1 MOL     -0.524055
    113 C37         6.8030   -2.3030    0.7680 c3        1 MOL      0.107734
    114 C38         7.2530   -3.6940    1.2600 c         1 MOL      0.477926
    115 N11         7.4810   -4.5740    0.3500 n         1 MOL     -0.720741
    116 O18         7.2660   -3.8970    2.4700 o         1 MOL     -0.484991
    117 H50         4.1380   -1.9010    1.5630 hn        1 MOL      0.171571
    118 H51         6.8460   -1.4650    2.6920 h1        1 MOL      0.076294
    119 H52         7.6740   -1.8600    0.2760 hc        1 MOL     -0.023303
    120 H53         6.1990   -2.5440   -0.0980 hc        1 MOL     -0.023303
    121 H54         7.4660   -4.3490   -0.6390 hn        1 MOL      0.357532
    122 H55         8.0200   -5.3520    0.6970 hn        1 MOL      0.357532
    123 N12         5.6410    0.4750    0.2940 n         1 MOL     -0.588495
    124 C39         5.9400    1.7020   -0.5070 c3        1 MOL     -0.197255
    125 C40         4.6510    2.4590   -0.7510 c         1 MOL      1.010914
    126 O19         3.5890    1.8080   -0.9280 o         1 MOL     -0.636622
    127 C41         6.6520    1.4300   -1.9360 c3        1 MOL     -0.035519
    128 C42         7.9220    0.6030   -1.9330 ca        1 MOL      0.008151
    129 C43         8.8000    0.5910   -0.8000 ca        1 MOL     -0.167194
    130 C44         8.2550   -0.1220   -3.1360 ca        1 MOL     -0.167194
    131 C45         9.9840   -0.2390   -0.8600 ca        1 MOL     -0.223824
    132 C46         9.4600   -0.8120   -3.1370 ca        1 MOL     -0.223824
    133 C47        10.3270   -0.8600   -2.0630 ca        1 MOL      0.326251
    134 O20        11.5230   -1.4960   -2.1800 oh        1 MOL     -0.529439
    135 H56         5.4880   -0.3160   -0.3170 hn        1 MOL      0.319950
    136 H57         6.6400    2.3440    0.0230 h1        1 MOL      0.117747
    137 H58         6.7530    2.3580   -2.4940 hc        1 MOL      0.061773
    138 H59         6.0020    0.9600   -2.6670 hc        1 MOL      0.061773
    139 H60         8.5700    1.2270    0.0410 ha        1 MOL      0.158753
    140 H61         7.6830    0.0220   -4.0430 ha        1 MOL      0.158753
    141 H62        10.6870   -0.2600   -0.0460 ha        1 MOL      0.130355
    142 H63         9.6860   -1.3510   -4.0450 ha        1 MOL      0.130355
    143 H64        12.1350   -1.3300   -1.4570 ho        1 MOL      0.380865
    144 N13         4.6960    3.7940   -0.7520 n         1 MOL     -0.855583
    145 C48         3.5520    4.7680   -1.0500 c3        1 MOL      0.064856
    146 C49         2.2540    4.7170   -0.2770 c         1 MOL      0.488967
    147 O21         1.4060    5.5450   -0.5190 o         1 MOL     -0.499774
    148 C50         3.2970    4.9480   -2.6130 c3        1 MOL     -0.080123
    149 C51         4.6390    5.4130   -3.2720 c3        1 MOL     -0.117281
    150 C52         5.1940    6.7380   -2.7710 c         1 MOL      0.684598
    151 O22         4.3970    7.7450   -2.8450 o         1 MOL     -0.729396
    152 O23         6.3290    6.8340   -2.2680 o         1 MOL     -0.729396
    153 H65         5.5540    4.2250   -0.4330 hn        1 MOL      0.374690
    154 H66         3.8760    5.7880   -0.8360 h1        1 MOL      0.137113
    155 H67         2.5210    5.6930   -2.7550 hc        1 MOL      0.050321
    156 H68         3.0910    3.9600   -3.0400 hc        1 MOL      0.050321
    157 H69         4.4420    5.6500   -4.3160 hc        1 MOL     -0.000675
    158 H70         5.3860    4.6170   -3.2900 hc        1 MOL     -0.000675
    159 N14         2.1790    3.8310    0.7000 n         1 MOL     -0.415528
    160 C53         1.0280    3.7870    1.7090 c3        1 MOL     -0.050464
    161 C54         1.2640    4.6830    2.8990 c         1 MOL      0.594476
    162 O24         0.3650    5.4550    3.2610 o         1 MOL     -0.554064
    163 C55         0.6720    2.3580    2.0750 c3        1 MOL     -0.208486
    164 C56         0.3600    1.3230    1.0180 c3        1 MOL      0.310839
    165 C57        -0.6060    1.7170   -0.0820 c         1 MOL      0.698400
    166 O25        -1.8470    1.5080   -0.0250 o         1 MOL     -0.653999
    167 O26        -0.0490    2.0750   -1.1560 o         1 MOL     -0.653999
    168 H71         2.9240    3.1610    0.7770 hn        1 MOL      0.277630
    169 H72         0.1650    4.1730    1.1790 h1        1 MOL      0.129595
    170 H73        -0.2530    2.4580    2.6550 hc        1 MOL      0.038276
    171 H74         1.4530    1.8890    2.6730 hc        1 MOL      0.038276
    172 H75        -0.0780    0.4540    1.5150 hc        1 MOL     -0.096766
    173 H76         1.2810    0.9050    0.6200 hc        1 MOL     -0.096766
    174 N15         2.4420    4.6080    3.4470 n         1 MOL     -0.369549
    175 C58         3.1310    5.5660    4.3920 c3        1 MOL     -0.214825
    176 H77         2.4500    5.8310    5.2010 h1        1 MOL      0.110801
    177 H78         4.0200    5.0920    4.8080 h1        1 MOL      0.110801
    178 H79         3.4180    6.4680    3.8510 h1        1 MOL      0.110801
    179 H80         2.9960    3.8330    3.1150 hn        1 MOL      0.286521
    180 Ca1        -3.9570    2.1570   -1.4110 Ca        1 MOL      1.652038
    181 O27        -2.7340    4.5240   -1.5430 oh        1 MOL     -0.808085
    182 H81        -1.9030    4.7440   -1.9590 ho        1 MOL      0.392576
    183 H82        -3.0150    5.3350   -1.1130 ho        1 MOL      0.392576
    184 O28        -4.4960    3.2250   -3.8560 oh        1 MOL     -0.808085
    185 H83        -5.3430    3.6180   -4.0570 ho        1 MOL      0.392576
    186 H84        -3.8520    3.7940   -4.2950 ho        1 MOL      0.392576
    187 O29        -1.8460    1.9060   -3.2210 oh        1 MOL     -0.808085
    188 H85        -1.5980    2.3170   -4.0460 ho        1 MOL      0.392576
    189 H86        -1.0270    1.8730   -2.7120 ho        1 MOL      0.392576
    190 O30        -6.1130    0.8620   -2.6180 oh        1 MOL     -0.808085
    191 H87        -7.0470    0.6390   -2.6080 ho        1 MOL      0.392576
    192 H88        -5.7070    0.1980   -3.1690 ho        1 MOL      0.392576
@<TRIPOS>BOND
     1    1    2 1   
     2    1    4 1   
     3    1    5 1   
     4    1    6 1   
     5    2    3 2   
     6    2    7 1   
     7    7    8 1   
     8    7   15 1   
     9    8    9 1   
    10    8   11 1   
    11    8   16 1   
    12    9   10 2   
    13    9   19 1   
    14   11   12 1   
    15   11   17 1   
    16   11   18 1   
    17   12   13 1   
    18   12   14 1   
    19   19   20 1   
    20   19   27 1   
    21   20   21 1   
    22   20   23 1   
    23   20   28 1   
    24   21   22 2   
    25   21   38 1   
    26   23   24 1   
    27   23   25 1   
    28   23   29 1   
    29   24   26 1   
    30   24   30 1   
    31   24   31 1   
    32   25   32 1   
    33   25   33 1   
    34   25   34 1   
    35   26   35 1   
    36   26   36 1   
    37   26   37 1   
    38   38   39 1   
    39   38   46 1   
    40   39   40 1   
    41   39   42 1   
    42   39   47 1   
    43   40   41 2   
    44   40   50 1   
    45   42   43 1   
    46   42   48 1   
    47   42   49 1   
    48   43   44 1   
    49   43   45 1   
    50   50   51 1   
    51   50   54 1   
    52   51   52 1   
    53   51   55 1   
    54   51   56 1   
    55   52   53 2   
    56   52   57 1   
    57   57   58 1   
    58   57   65 1   
    59   58   59 1   
    60   58   61 1   
    61   58   66 1   
    62   59   60 2   
    63   59   69 1   
    64   61   62 1   
    65   61   67 1   
    66   61   68 1   
    67   62   63 1   
    68   62   64 1   
    69   69   70 1   
    70   69   73 1   
    71   70   71 1   
    72   70   74 1   
    73   70   75 1   
    74   71   72 2   
    75   71   76 1   
    76   76   77 1   
    77   76   85 1   
    78   77   78 1   
    79   77   80 1   
    80   77   86 1   
    81   78   79 2   
    82   78   93 1   
    83   80   81 1   
    84   80   87 1   
    85   80   88 1   
    86   81   82 1   
    87   81   89 1   
    88   81   90 1   
    89   82   83 1   
    90   82   84 2   
    91   83   91 1   
    92   83   92 1   
    93   93   94 1   
    94   93  100 1   
    95   94   95 1   
    96   94   97 1   
    97   94  101 1   
    98   95   96 2   
    99   95  109 1   
   100   97   98 1   
   101   97   99 1   
   102   97  102 1   
   103   98  103 1   
   104   98  104 1   
   105   98  105 1   
   106   99  106 1   
   107   99  107 1   
   108   99  108 1   
   109  109  110 1   
   110  109  117 1   
   111  110  111 1   
   112  110  113 1   
   113  110  118 1   
   114  111  112 2   
   115  111  123 1   
   116  113  114 1   
   117  113  119 1   
   118  113  120 1   
   119  114  115 1   
   120  114  116 2   
   121  115  121 1   
   122  115  122 1   
   123  123  124 1   
   124  123  135 1   
   125  124  125 1   
   126  124  127 1   
   127  124  136 1   
   128  125  126 2   
   129  125  144 1   
   130  127  128 1   
   131  127  137 1   
   132  127  138 1   
   133  128  129 ar  
   134  128  130 ar  
   135  129  131 ar  
   136  129  139 1   
   137  130  132 ar  
   138  130  140 1   
   139  131  133 ar  
   140  131  141 1   
   141  132  133 ar  
   142  132  142 1   
   143  133  134 1   
   144  134  143 1   
   145  144  145 1   
   146  144  153 1   
   147  145  146 1   
   148  145  148 1   
   149  145  154 1   
   150  146  147 2   
   151  146  159 1   
   152  148  149 1   
   153  148  155 1   
   154  148  156 1   
   155  149  150 1   
   156  149  157 1   
   157  149  158 1   
   158  150  151 1   
   159  150  152 1   
   160  159  160 1   
   161  159  168 1   
   162  160  161 1   
   163  160  163 1   
   164  160  169 1   
   165  161  162 2   
   166  161  174 1   
   167  163  164 1   
   168  163  170 1   
   169  163  171 1   
   170  164  165 1   
   171  164  172 1   
   172  164  173 1   
   173  165  166 1   
   174  165  167 1   
   175  174  175 1   
   176  174  179 1   
   177  175  176 1   
   178  175  177 1   
   179  175  178 1   
   180  181  182 1   
   181  181  183 1   
   182  184  185 1   
   183  184  186 1   
   184  187  188 1   
   185  187  189 1   
   186  190  191 1   
   187  190  192 1   
@<TRIPOS>SUBSTRUCTURE
     1 MOL         1 TEMP              0 ****  ****    0 ROOT
