@<TRIPOS>MOLECULE
MOL
  188   182     1     0     0
SMALL
resp


@<TRIPOS>ATOM
      1 C1          6.1180    3.7590   -2.5990 c3        1 MOL     -0.210393
      2 C2          6.3970    2.2620   -2.2510 c         1 MOL      0.698733
      3 O1          5.7310    1.6680   -1.3580 o         1 MOL     -0.657858
      4 H1          5.4970    4.2030   -1.8200 hc        1 MOL      0.047297
      5 H2          7.0620    4.3000   -2.6630 hc        1 MOL      0.047297
      6 H3          5.5980    3.8190   -3.5550 hc        1 MOL      0.047297
      7 N1          7.4090    1.6270   -2.8500 n         1 MOL     -0.609681
      8 C3          7.9560    0.2890   -2.5150 c3        1 MOL      0.294339
      9 C4          8.1450    0.0960   -1.0060 c         1 MOL      0.402172
     10 O2          7.9250   -1.0070   -0.5190 o         1 MOL     -0.421472
     11 C5          7.0800   -0.7420   -3.1940 c3        1 MOL     -0.266424
     12 C6          7.7380   -2.1620   -3.3150 c         1 MOL      0.647566
     13 O3          8.9800   -2.2620   -3.4390 o         1 MOL     -0.642370
     14 O4          7.0300   -3.1990   -3.3290 o         1 MOL     -0.642370
     15 H4          7.9260    2.1050   -3.5830 hn        1 MOL      0.316870
     16 H5          8.8880    0.1870   -3.0640 h1        1 MOL     -0.009957
     17 H6          6.7570   -0.4600   -4.1990 hc        1 MOL      0.091156
     18 H7          6.1590   -0.8960   -2.6330 hc        1 MOL      0.091156
     19 N2          8.6080    1.0500   -0.2670 n         1 MOL     -0.376966
     20 C7          8.7440    0.8860    1.2060 c3        1 MOL     -0.123075
     21 C8          7.5570    0.4970    2.0190 c         1 MOL      0.551131
     22 O5          7.6530    0.2440    3.2360 o         1 MOL     -0.558465
     23 C9          9.2200    2.2400    1.7260 c3        1 MOL      0.151850
     24 C10         8.1670    3.3330    1.7340 c3        1 MOL     -0.023524
     25 C11         8.6190    4.6770    2.3920 c3        1 MOL      0.029723
     26 C12         9.7900    5.2350    1.5800 c3        1 MOL     -0.026551
     27 N3          9.8570    6.7370    1.4430 n4        1 MOL     -0.097330
     28 H8          8.7500    1.9910   -0.6280 hn        1 MOL      0.214219
     29 H9          9.5620    0.1920    1.3930 h1        1 MOL      0.151215
     30 H10        10.1680    2.5360    1.2640 hc        1 MOL     -0.008284
     31 H11         9.5200    2.0350    2.7540 hc        1 MOL     -0.008284
     32 H12         7.2970    3.0300    2.3070 hc        1 MOL      0.010861
     33 H13         7.9540    3.5950    0.7010 hc        1 MOL      0.010861
     34 H14         8.8690    4.5340    3.4340 hc        1 MOL      0.029157
     35 H15         7.7760    5.3660    2.3720 hc        1 MOL      0.029157
     36 H16         9.6670    4.8750    0.5650 hx        1 MOL      0.060173
     37 H17        10.7030    4.8100    2.0060 hx        1 MOL      0.060173
     38 H18        10.7370    7.0550    1.0500 hn        1 MOL      0.165789
     39 H19         9.1930    7.1310    0.7990 hn        1 MOL      0.165789
     40 H20         9.7400    7.2220    2.3260 hn        1 MOL      0.165789
     41 N4          6.3320    0.3390    1.4530 n         1 MOL     -0.303200
     42 C13         5.0510    0.0290    2.1240 c3        1 MOL     -0.214045
     43 C14         4.9930   -1.4460    2.5010 c         1 MOL      0.627198
     44 O6          5.5170   -2.3190    1.7580 o         1 MOL     -0.470337
     45 C15         3.8990    0.4070    1.1380 c3        1 MOL      0.045780
     46 C16         2.5580    0.0900    1.6570 c         1 MOL      0.455984
     47 O7          2.0540    0.9610    2.4310 o         1 MOL     -0.685491
     48 O8          1.9550   -1.0070    1.4820 o         1 MOL     -0.685491
     49 H21         6.3100    0.3300    0.4430 hn        1 MOL      0.217199
     50 H22         5.0500    0.6430    3.0250 h1        1 MOL      0.092116
     51 H23         4.0780   -0.1180    0.2090 hc        1 MOL      0.050719
     52 H24         4.0320    1.4350    0.8100 hc        1 MOL      0.050719
     53 N5          4.2910   -1.7430    3.5570 n         1 MOL     -0.336853
     54 C17         4.2950   -3.1260    4.1610 c3        1 MOL     -0.179662
     55 C18         3.6750   -4.1580    3.1970 c         1 MOL      0.568994
     56 O9          4.0050   -5.3220    3.3800 o         1 MOL     -0.540672
     57 H25         3.8940   -0.9780    4.0740 hn        1 MOL      0.267220
     58 H26         3.6520   -3.1890    5.0480 h1        1 MOL      0.115936
     59 H27         5.3080   -3.4360    4.3970 h1        1 MOL      0.115936
     60 N6          2.8160   -3.7580    2.2240 n         1 MOL     -0.377860
     61 C19         2.1740   -4.6090    1.2040 c3        1 MOL     -0.013206
     62 C20         2.5080   -4.0250   -0.2170 c         1 MOL      0.432207
     63 O10         1.7100   -4.1910   -1.1550 o         1 MOL     -0.512998
     64 C21         0.6480   -4.7580    1.5120 c3        1 MOL     -0.248422
     65 C22        -0.1830   -3.5070    1.3000 c         1 MOL      0.488277
     66 N7         -0.4360   -3.0510    0.1500 n         1 MOL     -0.194461
     67 O11        -0.4390   -2.8320    2.2600 o         1 MOL     -0.681911
     68 H28         2.5290   -2.7900    2.2730 hn        1 MOL      0.331185
     69 H29         2.5970   -5.6110    1.2660 h1        1 MOL      0.131679
     70 H30         0.4090   -5.1790    2.4830 hc        1 MOL      0.107612
     71 H31         0.2760   -5.5350    0.8420 hc        1 MOL      0.107612
     72 H32        -0.1810   -3.6460   -0.6250 hn        1 MOL      0.137765
     73 H33        -1.0670   -2.2970   -0.0840 hn        1 MOL      0.137765
     74 N8          3.5640   -3.2530   -0.3140 n         1 MOL     -0.178687
     75 C23         3.9640   -2.6470   -1.5690 c3        1 MOL     -0.171320
     76 C24         2.9580   -1.6800   -2.1600 c         1 MOL      0.458576
     77 O12         2.9560   -1.4300   -3.3220 o         1 MOL     -0.518448
     78 H34         4.1370   -2.9160    0.4540 hn        1 MOL      0.160272
     79 H35         4.1100   -3.4010   -2.3420 h1        1 MOL      0.149464
     80 H36         4.8750   -2.1260   -1.2700 h1        1 MOL      0.149464
     81 N9          2.0340   -1.1290   -1.3240 n         1 MOL     -0.101342
     82 C25         1.1020   -0.0710   -1.7860 c3        1 MOL      0.041706
     83 C26        -0.3010    0.0270   -1.0790 c         1 MOL      0.164810
     84 O13        -0.4500   -0.1590    0.1660 o         1 MOL     -0.179662
     85 C27         1.8770    1.3250   -1.8230 c3        1 MOL     -0.132068
     86 C28         1.3130    2.5620   -2.3900 ca        1 MOL      0.084661
     87 C29         1.0110    2.6010   -3.7790 ca        1 MOL     -0.168457
     88 C30         1.0560    3.6380   -1.5130 ca        1 MOL     -0.168457
     89 C31         0.3330    3.7310   -4.2820 ca        1 MOL     -0.275067
     90 C32         0.3950    4.7840   -2.0500 ca        1 MOL     -0.275067
     91 C33         0.0650    4.8310   -3.4170 ca        1 MOL      0.360252
     92 O14        -0.4300    5.9980   -3.9080 oh        1 MOL     -0.489742
     93 H37         2.0140   -1.4060   -0.3550 hn        1 MOL     -0.002585
     94 H38         0.9530   -0.3420   -2.8360 h1        1 MOL      0.041092
     95 H39         2.8580    1.2190   -2.2830 hc        1 MOL      0.081077
     96 H40         2.0680    1.5000   -0.7650 hc        1 MOL      0.081077
     97 H41         1.2790    1.7780   -4.4330 ha        1 MOL      0.161962
     98 H42         1.2980    3.6230   -0.4580 ha        1 MOL      0.161962
     99 H43         0.0710    3.7360   -5.3250 ha        1 MOL      0.152211
    100 H44         0.1600    5.6400   -1.4260 ha        1 MOL      0.152211
    101 H45        -0.3500    6.7410   -3.3100 ho        1 MOL      0.361831
    102 N10        -1.3580    0.3850   -1.8570 n         1 MOL     -0.030248
    103 C34        -2.7160    0.5730   -1.3130 c3        1 MOL     -0.526198
    104 C35        -3.5430   -0.7150   -1.2160 c         1 MOL      0.073053
    105 O15        -4.5250   -0.7850   -0.4610 o         1 MOL     -0.271295
    106 C36        -3.4490    1.6570   -2.0590 c3        1 MOL      0.436257
    107 C37        -3.7590    1.1700   -3.4970 c3        1 MOL      0.264746
    108 C38        -2.6820    2.9680   -2.0970 c3        1 MOL     -0.549849
    109 C39        -4.4280    2.1400   -4.4820 c3        1 MOL     -0.419324
    110 H46        -1.1590    0.6580   -2.8060 hn        1 MOL      0.230852
    111 H47        -2.5670    0.8790   -0.2770 h1        1 MOL      0.188794
    112 H48        -4.3940    1.8940   -1.5840 hc        1 MOL      0.012944
    113 H49        -4.3540    0.2620   -3.4050 hc        1 MOL     -0.081170
    114 H50        -2.7700    0.8480   -3.8410 hc        1 MOL     -0.081170
    115 H51        -1.8210    2.9300   -2.7650 hc        1 MOL      0.111582
    116 H52        -3.3130    3.8090   -2.4090 hc        1 MOL      0.111582
    117 H53        -2.1610    3.0930   -1.1540 hc        1 MOL      0.111582
    118 H54        -4.6110    1.6040   -5.4140 hc        1 MOL      0.119232
    119 H55        -5.3130    2.6150   -4.0450 hc        1 MOL      0.119232
    120 H56        -3.8120    2.9950   -4.7710 hc        1 MOL      0.119232
    121 N11        -2.9750   -1.8070   -1.7560 n         1 MOL     -0.015275
    122 C40        -3.4390   -3.2070   -1.5140 c3        1 MOL      0.021670
    123 C41        -4.8860   -3.4000   -1.7980 c         1 MOL      0.246444
    124 O16        -5.5390   -4.1910   -1.1180 o         1 MOL     -0.426439
    125 C42        -2.7350   -4.0340   -2.5720 c3        1 MOL      0.119039
    126 O17        -1.3270   -3.9350   -2.5730 oh        1 MOL     -0.543448
    127 H57        -2.1390   -1.6170   -2.2950 hn        1 MOL      0.145999
    128 H58        -3.1660   -3.5600   -0.5130 h1        1 MOL      0.082530
    129 H59        -3.0940   -3.8140   -3.5690 h1        1 MOL      0.033038
    130 H60        -3.0230   -5.0610   -2.3730 h1        1 MOL      0.033038
    131 H61        -1.0180   -4.6690   -3.1110 ho        1 MOL      0.420801
    132 N12        -5.4060   -2.6100   -2.7600 n         1 MOL     -0.230878
    133 C43        -6.8390   -2.5140   -3.1120 c3        1 MOL      0.211958
    134 C44        -7.8010   -2.1360   -1.9270 c         1 MOL      0.337724
    135 O18        -9.0150   -2.2680   -2.1010 o         1 MOL     -0.491434
    136 C45        -7.2690   -3.7720   -3.9560 c3        1 MOL     -0.428497
    137 H62        -4.7800   -2.0560   -3.3370 hn        1 MOL      0.219643
    138 H63        -6.8060   -1.7420   -3.8740 h1        1 MOL      0.040280
    139 H64        -6.6140   -3.6980   -4.8310 hc        1 MOL      0.126901
    140 H65        -7.1270   -4.6220   -3.2920 hc        1 MOL      0.126901
    141 H66        -8.3260   -3.7530   -4.2240 hc        1 MOL      0.126901
    142 N13        -7.2170   -1.6290   -0.8290 n         1 MOL     -0.239481
    143 C46        -7.9650   -1.2330    0.3890 c3        1 MOL      0.330332
    144 C47        -8.0470    0.3310    0.4890 c         1 MOL      0.214000
    145 O19        -7.2040    1.0770   -0.0950 o         1 MOL     -0.494659
    146 C48        -7.1960   -1.7200    1.5510 c3        1 MOL     -0.139471
    147 H67        -6.2430   -1.3780   -0.8680 hn        1 MOL      0.074668
    148 H68        -8.9920   -1.5950    0.2930 h1        1 MOL     -0.002374
    149 H69        -7.6560   -1.3460    2.4680 hc        1 MOL      0.034505
    150 H70        -7.2060   -2.8150    1.6040 hc        1 MOL      0.034505
    151 H71        -6.1740   -1.3510    1.5100 hc        1 MOL      0.034505
    152 N14        -9.0770    0.8100    1.2120 n         1 MOL     -0.208126
    153 C49        -9.6130    2.1450    1.3130 c3        1 MOL      0.085292
    154 C50        -9.7760    2.8330    0.0150 c         1 MOL      0.441916
    155 O20        -9.5130    4.0690   -0.0560 o         1 MOL     -0.529493
    156 C51        -9.0440    3.0250    2.4690 c3        1 MOL     -0.019925
    157 C52        -9.1840    2.4710    3.8630 c3        1 MOL     -0.078496
    158 C53       -10.5840    2.8780    4.4090 c         1 MOL      0.697843
    159 O21       -10.7210    3.8050    5.2070 o         1 MOL     -0.647486
    160 O22       -11.5970    2.2040    4.0670 o         1 MOL     -0.647486
    161 H72        -9.6490    0.1190    1.6840 hn        1 MOL      0.209357
    162 H73       -10.6540    1.9970    1.5690 h1        1 MOL      0.001651
    163 H74        -9.5110    4.0020    2.3740 hc        1 MOL      0.031202
    164 H75        -7.9740    3.2220    2.3600 hc        1 MOL      0.031202
    165 H76        -8.4770    2.8670    4.5900 hc        1 MOL     -0.028983
    166 H77        -8.9990    1.4020    3.9100 hc        1 MOL     -0.028983
    167 N15       -10.0240    2.0950   -1.0590 n         1 MOL     -0.218991
    168 C54       -10.0820    2.7390   -2.3770 c3        1 MOL     -0.070295
    169 H78       -10.2760    3.8040   -2.2530 h1        1 MOL      0.056308
    170 H79        -9.1310    2.6010   -2.8910 h1        1 MOL      0.056308
    171 H80       -10.8820    2.2910   -2.9660 h1        1 MOL      0.056308
    172 H81       -10.4470    1.1790   -1.0040 hn        1 MOL      0.213674
    173 Ca1        -0.2250   -0.1590    2.8470 Ca        1 MOL      1.755836
    174 O23        -0.4680    2.2710    1.8290 oh        1 MOL     -0.833711
    175 H82        -1.4100    2.3720    1.6720 ho        1 MOL      0.413088
    176 H83        -0.1520    3.1650    1.9400 ho        1 MOL      0.413088
    177 O24        -2.7340   -0.5000    1.9710 oh        1 MOL     -0.833711
    178 H84        -3.3720    0.0360    1.5140 ho        1 MOL      0.413088
    179 H85        -3.0060   -1.4030    1.8050 ho        1 MOL      0.413088
    180 O25         0.8420   -1.5450    4.8430 oh        1 MOL     -0.833711
    181 H86         0.7110   -2.4050    5.2410 ho        1 MOL      0.413088
    182 H87         0.8330   -0.9340    5.5850 ho        1 MOL      0.413088
    183 O26        -1.9650   -0.8880    4.9910 oh        1 MOL     -0.833711
    184 H88        -1.4110   -1.3190    5.6480 ho        1 MOL      0.413088
    185 H89        -2.8380   -0.8830    5.3760 ho        1 MOL      0.413088
    186 O27        -0.3890    1.6850    4.7290 oh        1 MOL     -0.833711
    187 H90        -0.0020    1.8560    5.5830 ho        1 MOL      0.413088
    188 H91        -0.9670    2.4280    4.5690 ho        1 MOL      0.413088
@<TRIPOS>BOND
     1    1    2 1   
     2    1    4 1   
     3    1    5 1   
     4    1    6 1   
     5    2    3 2   
     6    2    7 1   
     7    7    8 1   
     8    7   15 1   
     9    8    9 1   
    10    8   11 1   
    11    8   16 1   
    12    9   10 2   
    13    9   19 1   
    14   11   12 1   
    15   11   17 1   
    16   11   18 1   
    17   12   13 1   
    18   12   14 1   
    19   19   20 1   
    20   19   28 1   
    21   20   21 1   
    22   20   23 1   
    23   20   29 1   
    24   21   22 2   
    25   21   41 1   
    26   23   24 1   
    27   23   30 1   
    28   23   31 1   
    29   24   25 1   
    30   24   32 1   
    31   24   33 1   
    32   25   26 1   
    33   25   34 1   
    34   25   35 1   
    35   26   27 1   
    36   26   36 1   
    37   26   37 1   
    38   27   38 1   
    39   27   39 1   
    40   27   40 1   
    41   41   42 1   
    42   41   49 1   
    43   42   43 1   
    44   42   45 1   
    45   42   50 1   
    46   43   44 2   
    47   43   53 1   
    48   45   46 1   
    49   45   51 1   
    50   45   52 1   
    51   46   47 1   
    52   46   48 1   
    53   53   54 1   
    54   53   57 1   
    55   54   55 1   
    56   54   58 1   
    57   54   59 1   
    58   55   56 2   
    59   55   60 1   
    60   60   61 1   
    61   60   68 1   
    62   61   62 1   
    63   61   64 1   
    64   61   69 1   
    65   62   63 2   
    66   62   74 1   
    67   64   65 1   
    68   64   70 1   
    69   64   71 1   
    70   65   66 1   
    71   65   67 2   
    72   66   72 1   
    73   66   73 1   
    74   74   75 1   
    75   74   78 1   
    76   75   76 1   
    77   75   79 1   
    78   75   80 1   
    79   76   77 2   
    80   76   81 1   
    81   81   82 1   
    82   81   93 1   
    83   82   83 1   
    84   82   85 1   
    85   82   94 1   
    86   83   84 2   
    87   83  102 1   
    88   85   86 1   
    89   85   95 1   
    90   85   96 1   
    91   86   87 ar  
    92   86   88 ar  
    93   87   89 ar  
    94   87   97 1   
    95   88   90 ar  
    96   88   98 1   
    97   89   91 ar  
    98   89   99 1   
    99   90   91 ar  
   100   90  100 1   
   101   91   92 1   
   102   92  101 1   
   103  102  103 1   
   104  102  110 1   
   105  103  104 1   
   106  103  106 1   
   107  103  111 1   
   108  104  105 2   
   109  104  121 1   
   110  106  107 1   
   111  106  108 1   
   112  106  112 1   
   113  107  109 1   
   114  107  113 1   
   115  107  114 1   
   116  108  115 1   
   117  108  116 1   
   118  108  117 1   
   119  109  118 1   
   120  109  119 1   
   121  109  120 1   
   122  121  122 1   
   123  121  127 1   
   124  122  123 1   
   125  122  125 1   
   126  122  128 1   
   127  123  124 2   
   128  123  132 1   
   129  125  126 1   
   130  125  129 1   
   131  125  130 1   
   132  126  131 1   
   133  132  133 1   
   134  132  137 1   
   135  133  134 1   
   136  133  136 1   
   137  133  138 1   
   138  134  135 2   
   139  134  142 1   
   140  136  139 1   
   141  136  140 1   
   142  136  141 1   
   143  142  143 1   
   144  142  147 1   
   145  143  144 1   
   146  143  146 1   
   147  143  148 1   
   148  144  145 2   
   149  144  152 1   
   150  146  149 1   
   151  146  150 1   
   152  146  151 1   
   153  152  153 1   
   154  152  161 1   
   155  153  154 1   
   156  153  156 1   
   157  153  162 1   
   158  154  155 2   
   159  154  167 1   
   160  156  157 1   
   161  156  163 1   
   162  156  164 1   
   163  157  158 1   
   164  157  165 1   
   165  157  166 1   
   166  158  159 1   
   167  158  160 1   
   168  167  168 1   
   169  167  172 1   
   170  168  169 1   
   171  168  170 1   
   172  168  171 1   
   173  174  175 1   
   174  174  176 1   
   175  177  178 1   
   176  177  179 1   
   177  180  181 1   
   178  180  182 1   
   179  183  184 1   
   180  183  185 1   
   181  186  187 1   
   182  186  188 1   
@<TRIPOS>SUBSTRUCTURE
     1 MOL         1 TEMP              0 ****  ****    0 ROOT
