@<TRIPOS>MOLECULE
MOL
  189   185     1     0     0
SMALL
resp


@<TRIPOS>ATOM
      1 C1         -8.9720   -0.6740   -3.0010 c3        1 MOL     -0.460328
      2 C2         -8.0580   -0.4330   -1.7990 c         1 MOL      0.759780
      3 O1         -6.8300   -0.4440   -1.8980 o         1 MOL     -0.656312
      4 H1         -9.2040    0.2790   -3.4760 hc        1 MOL      0.117217
      5 H2         -8.4670   -1.3230   -3.7170 hc        1 MOL      0.117217
      6 H3         -9.8950   -1.1480   -2.6680 hc        1 MOL      0.117217
      7 N1         -8.6420   -0.3600   -0.6300 n         1 MOL     -0.604615
      8 C3         -7.9650   -0.0700    0.6280 c3        1 MOL      0.245578
      9 C4         -7.6880   -1.4940    1.3210 c         1 MOL      0.421810
     10 O2         -8.4270   -2.0480    2.1770 o         1 MOL     -0.506515
     11 C5         -8.9410    0.7310    1.5480 c3        1 MOL     -0.545401
     12 C6         -8.2850    1.1210    2.8800 c         1 MOL      0.806470
     13 O3         -9.0100    1.1550    3.9230 o         1 MOL     -0.591482
     14 O4         -7.1400    1.5250    3.0560 o         1 MOL     -0.591482
     15 H4         -9.6460   -0.3540   -0.5970 hn        1 MOL      0.335946
     16 H5         -7.0060    0.4240    0.4560 h1        1 MOL      0.076565
     17 H6         -9.8490    0.1500    1.6830 hc        1 MOL      0.134961
     18 H7         -9.2200    1.6610    1.0560 hc        1 MOL      0.134961
     19 N2         -6.6650   -2.1660    0.7340 n         1 MOL     -0.186410
     20 C7         -6.2050   -3.5240    1.1240 c3        1 MOL      0.026608
     21 C8         -4.7540   -3.3660    1.6630 c         1 MOL      0.560468
     22 O5         -4.5090   -3.9490    2.7020 o         1 MOL     -0.538455
     23 C9         -6.4250   -4.6050    0.0200 c3        1 MOL     -0.132577
     24 C10        -7.8660   -5.0100   -0.1190 c3        1 MOL      0.121794
     25 C11        -8.0880   -5.6940   -1.4090 c3        1 MOL      0.006982
     26 C12        -9.5690   -6.1170   -1.4380 c3        1 MOL      0.086445
     27 N3         -9.8360   -6.9930   -2.5400 n4        1 MOL     -0.291044
     28 H8         -6.1880   -1.6790   -0.0210 hn        1 MOL      0.117646
     29 H9         -6.7410   -3.7340    2.0430 h1        1 MOL      0.091901
     30 H10        -5.7390   -5.4090    0.2720 hc        1 MOL      0.044840
     31 H11        -6.1070   -4.1610   -0.9330 hc        1 MOL      0.044840
     32 H12        -8.3640   -4.0410   -0.2480 hc        1 MOL     -0.009228
     33 H13        -8.2150   -5.5750    0.7430 hc        1 MOL     -0.009228
     34 H14        -7.4250   -6.5560   -1.5250 hc        1 MOL      0.004872
     35 H15        -7.8010   -4.9930   -2.1970 hc        1 MOL      0.004872
     36 H16       -10.0590   -5.1460   -1.3870 hx        1 MOL      0.048718
     37 H17        -9.8480   -6.6100   -0.4990 hx        1 MOL      0.048718
     38 H18        -9.9110   -6.4360   -3.3750 hn        1 MOL      0.244619
     39 H19        -9.2090   -7.7780   -2.5860 hn        1 MOL      0.244619
     40 H20       -10.7460   -7.4230   -2.4770 hn        1 MOL      0.244619
     41 N4         -3.7170   -2.7700    0.9840 n         1 MOL     -0.356046
     42 C13        -3.6680   -1.9780   -0.2520 c3        1 MOL     -0.320518
     43 C14        -3.5750   -0.4600   -0.0620 c         1 MOL      0.492597
     44 O6         -3.0330    0.0040    0.9690 o         1 MOL     -0.452932
     45 C15        -2.4800   -2.5500   -1.0920 c3        1 MOL     -0.249669
     46 C16        -1.1150   -2.5820   -0.3620 c         1 MOL      0.774489
     47 O7         -0.8000   -1.6820    0.4810 o         1 MOL     -0.655879
     48 O8         -0.2810   -3.4730   -0.6100 o         1 MOL     -0.655879
     49 H21        -2.8450   -2.7000    1.4840 hn        1 MOL      0.296643
     50 H22        -4.5200   -2.2740   -0.8780 h1        1 MOL      0.214344
     51 H23        -2.3980   -1.9220   -1.9720 hc        1 MOL      0.080288
     52 H24        -2.6750   -3.5760   -1.4100 hc        1 MOL      0.080288
     53 N5         -3.9490    0.2760   -1.1540 n         1 MOL     -0.384783
     54 C17        -4.2260    1.7390   -1.1370 c3        1 MOL      0.045870
     55 C18        -3.0880    2.6800   -0.6920 c         1 MOL      0.554479
     56 O9         -1.8940    2.3170   -0.5070 o         1 MOL     -0.898711
     57 H25        -4.2490   -0.1400   -2.0230 hn        1 MOL      0.300728
     58 H26        -5.1340    1.8440   -0.5430 h1        1 MOL      0.090852
     59 H27        -4.6490    2.0640   -2.0920 h1        1 MOL      0.090852
     60 N6         -3.4210    3.8990   -0.3510 n         1 MOL     -0.539624
     61 C19        -2.5790    4.8740    0.2730 c3        1 MOL      0.648788
     62 C20        -2.8510    6.2620   -0.4310 c         1 MOL      0.253232
     63 O10        -3.9650    6.4470   -0.9160 o         1 MOL     -0.517339
     64 C21        -2.7160    4.9950    1.7850 c3        1 MOL     -0.241668
     65 C22        -2.5800    3.6080    2.4330 c         1 MOL      0.601415
     66 O11        -3.5830    2.9800    2.9400 o         1 MOL     -0.613497
     67 O12        -1.4910    3.0210    2.3680 o         1 MOL     -0.613497
     68 H28        -4.4120    4.0970   -0.3870 hn        1 MOL      0.276195
     69 H29        -1.5170    4.6820    0.1290 h1        1 MOL     -0.009025
     70 H30        -3.6060    5.4360    2.2420 hc        1 MOL      0.024661
     71 H31        -1.7830    5.4580    2.0840 hc        1 MOL      0.024661
     72 N7         -2.0590    7.3000   -0.2740 n         1 MOL     -0.320832
     73 C23        -0.6690    7.3010    0.1530 c3        1 MOL     -0.248041
     74 C24         0.2630    6.3780   -0.6490 c         1 MOL      0.749155
     75 O13         0.1270    6.3870   -1.8450 o         1 MOL     -0.524196
     76 H32        -2.3460    8.2160   -0.5830 hn        1 MOL      0.321392
     77 H33        -0.7170    7.0990    1.2240 h1        1 MOL      0.091591
     78 H34        -0.2910    8.3150    0.0630 h1        1 MOL      0.091591
     79 N8          1.2400    5.7070   -0.0100 n         1 MOL     -0.676146
     80 C25         2.2090    4.8200   -0.6360 c3        1 MOL     -0.034195
     81 C26         1.6620    3.4630   -1.0160 c         1 MOL      0.776077
     82 O14         0.9030    2.8110   -0.2340 o         1 MOL     -0.701330
     83 C27         3.3580    4.5130    0.3780 c3        1 MOL      0.551051
     84 C28         4.0750    5.7390    0.9580 c3        1 MOL     -0.209477
     85 O15         4.3610    3.7300   -0.2330 oh        1 MOL     -0.695372
     86 H35         1.2680    5.8200    0.9880 hn        1 MOL      0.336543
     87 H36         2.5610    5.3360   -1.5230 h1        1 MOL      0.080714
     88 H37         2.8580    3.9550    1.1670 h1        1 MOL     -0.085211
     89 H38         4.3670    2.7910   -0.0130 ho        1 MOL      0.401601
     90 H39         3.3000    6.3290    1.4520 hc        1 MOL      0.052182
     91 H40         4.7360    5.4450    1.7780 hc        1 MOL      0.052182
     92 H41         4.6210    6.3160    0.2140 hc        1 MOL      0.052182
     93 N9          1.9620    2.9540   -2.2180 n         1 MOL     -0.473413
     94 C29         1.4250    1.7880   -2.9660 c3        1 MOL      0.011728
     95 C30         1.6540    0.4780   -2.1810 c         1 MOL      0.274448
     96 O16         1.0310    0.2410   -1.1290 o         1 MOL     -0.462751
     97 C31        -0.0260    1.9710   -3.3720 c3        1 MOL     -0.257996
     98 C32        -0.0790    3.2820   -4.1850 c3        1 MOL      0.214193
     99 C33        -0.4740    0.8000   -4.2010 c3        1 MOL     -0.294389
    100 C34        -1.5940    3.7820   -4.2240 c3        1 MOL     -0.223543
    101 H42         2.7520    3.3810   -2.6730 hn        1 MOL      0.247483
    102 H43         1.9900    1.7290   -3.8990 h1        1 MOL      0.112487
    103 H44        -0.6200    2.1900   -2.4800 hc        1 MOL      0.352270
    104 H45         0.3110    3.1960   -5.1980 hc        1 MOL     -0.034319
    105 H46         0.5340    4.0620   -3.7340 hc        1 MOL     -0.034319
    106 H47         0.2530    0.6230   -4.9960 hc        1 MOL      0.088140
    107 H48        -0.5840   -0.0780   -3.5670 hc        1 MOL      0.088140
    108 H49        -1.4330    0.9670   -4.6830 hc        1 MOL      0.088140
    109 H50        -1.9150    3.9650   -3.1920 hc        1 MOL      0.047988
    110 H51        -1.6680    4.6620   -4.8590 hc        1 MOL      0.047988
    111 H52        -2.3080    3.0280   -4.5460 hc        1 MOL      0.047988
    112 N10         2.3650   -0.5060   -2.7730 n         1 MOL     -0.092748
    113 C35         2.5440   -1.9110   -2.2690 c3        1 MOL     -0.443454
    114 C36         4.0710   -2.2990   -2.4280 c         1 MOL      0.514844
    115 O17         4.5100   -3.3640   -2.0070 o         1 MOL     -0.554125
    116 C37         1.6370   -2.9350   -3.0410 c3        1 MOL      0.384748
    117 C38         2.0920   -3.0100   -4.4480 c3        1 MOL     -0.258290
    118 O18         0.2010   -2.7540   -3.0300 oh        1 MOL     -0.563676
    119 H53         2.7980   -0.2470   -3.6470 hn        1 MOL      0.169435
    120 H54         2.3350   -1.9090   -1.1990 h1        1 MOL      0.294873
    121 H55         1.8520   -3.9350   -2.6570 h1        1 MOL      0.038875
    122 H56        -0.0190   -2.7630   -2.0940 ho        1 MOL      0.308508
    123 H57         1.5940   -3.8080   -4.9960 hc        1 MOL      0.063976
    124 H58         1.7080   -2.1500   -5.0030 hc        1 MOL      0.063976
    125 H59         3.1480   -3.0780   -4.7190 hc        1 MOL      0.063976
    126 N11         4.9290   -1.4420   -2.9070 n         1 MOL     -0.296249
    127 C39         6.3680   -1.7890   -3.0290 c3        1 MOL     -0.001768
    128 C40         7.0820   -1.5020   -1.7200 c         1 MOL      0.516250
    129 O19         7.7370   -0.4990   -1.5750 o         1 MOL     -0.495629
    130 C41         6.9820   -1.0100   -4.2700 c3        1 MOL      0.458470
    131 C42         8.2480   -1.6560   -4.8210 c3        1 MOL     -0.360203
    132 O20         6.0500   -0.9540   -5.3920 oh        1 MOL     -0.641260
    133 H60         4.6370   -0.5190   -3.1960 hn        1 MOL      0.241797
    134 H61         6.4300   -2.8570   -3.2390 h1        1 MOL      0.060198
    135 H62         7.1340    0.0300   -4.0010 h1        1 MOL      0.022382
    136 H63         5.9610   -1.8700   -5.6660 ho        1 MOL      0.374538
    137 H64         8.2470   -2.7450   -4.8140 hc        1 MOL      0.084046
    138 H65         8.6230   -1.2370   -5.7580 hc        1 MOL      0.084046
    139 H66         9.0120   -1.3600   -4.0960 hc        1 MOL      0.084046
    140 N12         6.8370   -2.3620   -0.7250 n         1 MOL     -0.659735
    141 C43         6.9560   -2.1880    0.7240 c3        1 MOL      0.249748
    142 C44         5.8170   -1.3920    1.2700 c         1 MOL      0.556783
    143 O21         5.7180   -0.2600    0.8050 o         1 MOL     -0.491024
    144 C45         8.2720   -1.6160    1.2940 c3        1 MOL     -0.598946
    145 C46         9.4950   -2.1560    0.5810 c3        1 MOL      0.299082
    146 C47        10.8030   -1.6320    1.1920 c3        1 MOL     -0.057821
    147 C48        12.0430   -2.1220    0.4740 c3        1 MOL     -0.060053
    148 N13        13.1900   -1.8750    1.3020 n4        1 MOL     -0.009070
    149 H67         6.2670   -3.1800   -0.9000 hn        1 MOL      0.361705
    150 H68         6.6950   -3.1850    1.0910 h1        1 MOL      0.016831
    151 H69         8.4520   -1.7940    2.3540 hc        1 MOL      0.175773
    152 H70         8.3380   -0.5370    1.1210 hc        1 MOL      0.175773
    153 H71         9.4260   -1.8890   -0.4700 hc        1 MOL     -0.030550
    154 H72         9.5180   -3.2400    0.6730 hc        1 MOL     -0.030550
    155 H73        10.8580   -1.9050    2.2350 hc        1 MOL      0.045213
    156 H74        10.7510   -0.5450    1.0600 hc        1 MOL      0.045213
    157 H75        12.1160   -1.6160   -0.4860 hx        1 MOL      0.075384
    158 H76        11.9170   -3.2070    0.3840 hx        1 MOL      0.075384
    159 H77        13.3050   -2.5700    2.0270 hn        1 MOL      0.178233
    160 H78        14.0770   -1.7670    0.8180 hn        1 MOL      0.178233
    161 H79        13.1080   -0.9720    1.7430 hn        1 MOL      0.178233
    162 N14         5.0320   -1.9370    2.2130 n         1 MOL     -0.462466
    163 C49         3.9310   -1.2020    2.8980 c3        1 MOL      0.258096
    164 C50         2.6450   -1.2970    2.1500 c         1 MOL      0.250019
    165 O22         1.9940   -0.3100    1.8750 o         1 MOL     -0.520542
    166 C51         3.7890   -1.5040    4.4110 c3        1 MOL     -0.041247
    167 C52         4.9940   -1.0160    5.1640 c3        1 MOL     -0.130853
    168 C53         4.8750   -1.3930    6.6320 c         1 MOL      0.636099
    169 O23         4.7820   -2.6560    6.8820 o         1 MOL     -0.668978
    170 O24         4.7950   -0.4420    7.4630 o         1 MOL     -0.668978
    171 H80         5.3330   -2.8040    2.6370 hn        1 MOL      0.280493
    172 H81         4.2110   -0.1490    2.8080 h1        1 MOL     -0.013300
    173 H82         3.6210   -2.5730    4.5050 hc        1 MOL      0.052624
    174 H83         2.9070   -0.9810    4.7990 hc        1 MOL      0.052624
    175 H84         5.1390    0.0550    5.0170 hc        1 MOL     -0.001649
    176 H85         5.8770   -1.4740    4.7210 hc        1 MOL     -0.001649
    177 N15         2.1290   -2.5270    1.8450 n         1 MOL     -0.261221
    178 C54         2.4990   -3.9270    2.1600 c3        1 MOL     -0.098554
    179 H86         3.0360   -3.9560    3.1090 h1        1 MOL      0.066449
    180 H87         1.5970   -4.5340    2.2350 h1        1 MOL      0.066449
    181 H88         3.1380   -4.3220    1.3700 h1        1 MOL      0.066449
    182 H89         1.3780   -2.4540    1.1770 hn        1 MOL      0.249871
    183 Ca1        -0.4180    0.8910    1.0870 Ca        1 MOL      1.827265
    184 O25        -0.6770   -0.0560    3.5360 oh        1 MOL     -0.915811
    185 H90        -0.9700    0.5450    4.2180 ho        1 MOL      0.442239
    186 H91        -0.1240   -0.6880    3.9800 ho        1 MOL      0.442239
    187 O26         1.1970    2.2080    3.2300 oh        1 MOL     -0.915811
    188 H92         1.1810    2.7300    4.0340 ho        1 MOL      0.442239
    189 H93         2.1180    2.0160    3.0840 ho        1 MOL      0.442239
@<TRIPOS>BOND
     1    1    2 1   
     2    1    4 1   
     3    1    5 1   
     4    1    6 1   
     5    2    3 2   
     6    2    7 1   
     7    7    8 1   
     8    7   15 1   
     9    8    9 1   
    10    8   11 1   
    11    8   16 1   
    12    9   10 2   
    13    9   19 1   
    14   11   12 1   
    15   11   17 1   
    16   11   18 1   
    17   12   13 1   
    18   12   14 1   
    19   19   20 1   
    20   19   28 1   
    21   20   21 1   
    22   20   23 1   
    23   20   29 1   
    24   21   22 2   
    25   21   41 1   
    26   23   24 1   
    27   23   30 1   
    28   23   31 1   
    29   24   25 1   
    30   24   32 1   
    31   24   33 1   
    32   25   26 1   
    33   25   34 1   
    34   25   35 1   
    35   26   27 1   
    36   26   36 1   
    37   26   37 1   
    38   27   38 1   
    39   27   39 1   
    40   27   40 1   
    41   41   42 1   
    42   41   49 1   
    43   42   43 1   
    44   42   45 1   
    45   42   50 1   
    46   43   44 2   
    47   43   53 1   
    48   45   46 1   
    49   45   51 1   
    50   45   52 1   
    51   46   47 1   
    52   46   48 1   
    53   53   54 1   
    54   53   57 1   
    55   54   55 1   
    56   54   58 1   
    57   54   59 1   
    58   55   56 2   
    59   55   60 1   
    60   60   61 1   
    61   60   68 1   
    62   61   62 1   
    63   61   64 1   
    64   61   69 1   
    65   62   63 2   
    66   62   72 1   
    67   64   65 1   
    68   64   70 1   
    69   64   71 1   
    70   65   66 1   
    71   65   67 1   
    72   72   73 1   
    73   72   76 1   
    74   73   74 1   
    75   73   77 1   
    76   73   78 1   
    77   74   75 2   
    78   74   79 1   
    79   79   80 1   
    80   79   86 1   
    81   80   81 1   
    82   80   83 1   
    83   80   87 1   
    84   81   82 2   
    85   81   93 1   
    86   83   84 1   
    87   83   85 1   
    88   83   88 1   
    89   84   90 1   
    90   84   91 1   
    91   84   92 1   
    92   85   89 1   
    93   93   94 1   
    94   93  101 1   
    95   94   95 1   
    96   94   97 1   
    97   94  102 1   
    98   95   96 2   
    99   95  112 1   
   100   97   98 1   
   101   97   99 1   
   102   97  103 1   
   103   98  100 1   
   104   98  104 1   
   105   98  105 1   
   106   99  106 1   
   107   99  107 1   
   108   99  108 1   
   109  100  109 1   
   110  100  110 1   
   111  100  111 1   
   112  112  113 1   
   113  112  119 1   
   114  113  114 1   
   115  113  116 1   
   116  113  120 1   
   117  114  115 2   
   118  114  126 1   
   119  116  117 1   
   120  116  118 1   
   121  116  121 1   
   122  117  123 1   
   123  117  124 1   
   124  117  125 1   
   125  118  122 1   
   126  126  127 1   
   127  126  133 1   
   128  127  128 1   
   129  127  130 1   
   130  127  134 1   
   131  128  129 2   
   132  128  140 1   
   133  130  131 1   
   134  130  132 1   
   135  130  135 1   
   136  131  137 1   
   137  131  138 1   
   138  131  139 1   
   139  132  136 1   
   140  140  141 1   
   141  140  149 1   
   142  141  142 1   
   143  141  144 1   
   144  141  150 1   
   145  142  143 2   
   146  142  162 1   
   147  144  145 1   
   148  144  151 1   
   149  144  152 1   
   150  145  146 1   
   151  145  153 1   
   152  145  154 1   
   153  146  147 1   
   154  146  155 1   
   155  146  156 1   
   156  147  148 1   
   157  147  157 1   
   158  147  158 1   
   159  148  159 1   
   160  148  160 1   
   161  148  161 1   
   162  162  163 1   
   163  162  171 1   
   164  163  164 1   
   165  163  166 1   
   166  163  172 1   
   167  164  165 2   
   168  164  177 1   
   169  166  167 1   
   170  166  173 1   
   171  166  174 1   
   172  167  168 1   
   173  167  175 1   
   174  167  176 1   
   175  168  169 1   
   176  168  170 1   
   177  177  178 1   
   178  177  182 1   
   179  178  179 1   
   180  178  180 1   
   181  178  181 1   
   182  184  185 1   
   183  184  186 1   
   184  187  188 1   
   185  187  189 1   
@<TRIPOS>SUBSTRUCTURE
     1 MOL         1 TEMP              0 ****  ****    0 ROOT
