@<TRIPOS>MOLECULE
MOL
  201   193     1     0     0
SMALL
resp


@<TRIPOS>ATOM
      1 C1          4.3740   -5.1980    6.8700 c3        1 MOL     -0.410194
      2 C2          4.5760   -4.6450    5.4390 c         1 MOL      0.765462
      3 O1          4.3480   -3.4740    5.1880 o         1 MOL     -0.627567
      4 H1          4.9800   -6.0940    7.0020 hc        1 MOL      0.102204
      5 H2          4.6780   -4.4450    7.5980 hc        1 MOL      0.102204
      6 H3          3.3230   -5.4460    7.0210 hc        1 MOL      0.102204
      7 N1          5.0030   -5.5020    4.4840 n         1 MOL     -0.683924
      8 C3          5.4290   -5.1070    3.1280 c3        1 MOL      0.337360
      9 C4          4.2650   -4.7440    2.1540 c         1 MOL      0.567192
     10 O2          3.1850   -5.3510    2.2680 o         1 MOL     -0.541561
     11 C5          6.3450   -6.2390    2.6070 c3        1 MOL     -0.400878
     12 C6          7.3510   -5.8750    1.4950 c         1 MOL      0.749260
     13 O3          7.3420   -4.7480    1.0070 o         1 MOL     -0.633073
     14 O4          8.2180   -6.7170    1.1720 o         1 MOL     -0.633073
     15 H4          5.1850   -6.4500    4.8140 hn        1 MOL      0.319444
     16 H5          6.0210   -4.2080    3.3090 h1        1 MOL      0.003085
     17 H6          5.6840   -7.0400    2.2710 hc        1 MOL      0.091969
     18 H7          6.9600   -6.5120    3.4650 hc        1 MOL      0.091969
     19 N2          4.4980   -3.7140    1.3090 n         1 MOL     -0.367350
     20 C7          3.4340   -2.9880    0.6890 c3        1 MOL     -0.298239
     21 C8          3.3330   -3.3040   -0.8120 c         1 MOL      0.857659
     22 O5          4.3400   -3.6530   -1.3700 o         1 MOL     -0.550895
     23 C9          3.7370   -1.5020    0.7830 c3        1 MOL      0.228209
     24 C10         3.6290   -1.1240    2.2790 c3        1 MOL      0.150390
     25 C11         3.8420    0.3550    2.5090 c3        1 MOL      0.021123
     26 C12         5.1230    0.8030    1.8230 c3        1 MOL      0.102651
     27 N3          5.8610    1.9010    2.5260 n4        1 MOL     -0.535232
     28 H8          5.4210   -3.3360    1.1750 hn        1 MOL      0.237929
     29 H9          2.4530   -3.1390    1.1360 h1        1 MOL      0.130467
     30 H10         3.0230   -0.9490    0.1740 hc        1 MOL     -0.045558
     31 H11         4.7340   -1.2070    0.4500 hc        1 MOL     -0.045558
     32 H12         4.2790   -1.7470    2.8960 hc        1 MOL     -0.053071
     33 H13         2.5760   -1.2820    2.5330 hc        1 MOL     -0.053071
     34 H14         3.9290    0.5770    3.5790 hc        1 MOL     -0.023605
     35 H15         2.9680    0.8650    2.1030 hc        1 MOL     -0.023605
     36 H16         4.8910    1.0350    0.7770 hx        1 MOL      0.067494
     37 H17         5.7920   -0.0610    1.8010 hx        1 MOL      0.067494
     38 H18         6.7900    1.8090    2.1410 hn        1 MOL      0.356297
     39 H19         5.3790    2.7650    2.3520 hn        1 MOL      0.356297
     40 H20         5.9380    1.7130    3.5080 hn        1 MOL      0.356297
     41 N4          2.1730   -3.1700   -1.4200 n         1 MOL     -0.673300
     42 C13         2.0800   -3.1700   -2.8850 c3        1 MOL      0.148255
     43 C14         0.9900   -2.2180   -3.4120 c         1 MOL      0.600623
     44 O6         -0.1900   -2.4680   -3.2530 o         1 MOL     -0.522569
     45 C15         1.8450   -4.5940   -3.4070 c3        1 MOL     -0.163259
     46 C16         0.7780   -5.5180   -2.7570 c         1 MOL      0.713889
     47 O7          0.6730   -6.7270   -2.9650 o         1 MOL     -0.699417
     48 O8         -0.1120   -5.0340   -2.0270 o         1 MOL     -0.699417
     49 H21         1.3450   -2.9570   -0.8850 hn        1 MOL      0.319187
     50 H22         3.0510   -2.8610   -3.2480 h1        1 MOL      0.043369
     51 H23         2.8410   -5.0470   -3.4050 hc        1 MOL      0.046860
     52 H24         1.5330   -4.4820   -4.4430 hc        1 MOL      0.046860
     53 N5          1.3610   -1.0680   -4.0680 n         1 MOL     -0.658369
     54 C17         2.7050   -0.5740   -4.3780 c3        1 MOL      0.215435
     55 C18         3.4120    0.2170   -3.2440 c         1 MOL      0.303668
     56 O9          2.8840    0.2460   -2.1360 o         1 MOL     -0.463434
     57 H25         0.6040   -0.7290   -4.6450 hn        1 MOL      0.329514
     58 H26         2.7100   -0.0270   -5.3260 h1        1 MOL      0.039535
     59 H27         3.4010   -1.3660   -4.6520 h1        1 MOL      0.039535
     60 N6          4.6780    0.6210   -3.4860 n         1 MOL     -0.292830
     61 C19         5.5520    1.1400   -2.3830 c3        1 MOL     -0.142333
     62 C20         5.8000    2.6830   -2.3010 c         1 MOL      0.403109
     63 O10         6.5190    3.1380   -1.4220 o         1 MOL     -0.495373
     64 C21         6.8960    0.3620   -2.1230 c3        1 MOL     -0.155652
     65 C22         7.8120    0.3290   -3.3690 c         1 MOL      0.725379
     66 O11         8.3090    1.4010   -3.7800 o         1 MOL     -0.660384
     67 O12         8.0400   -0.7570   -3.9460 o         1 MOL     -0.660384
     68 H28         4.8700    0.4170   -4.4550 hn        1 MOL      0.263395
     69 H29         4.9810    1.0840   -1.4580 h1        1 MOL      0.130471
     70 H30         6.6930   -0.6720   -1.8390 hc        1 MOL      0.062015
     71 H31         7.4520    0.5890   -1.2160 hc        1 MOL      0.062015
     72 N7          5.1500    3.4880   -3.1220 n         1 MOL     -0.167887
     73 C23         5.1710    4.9300   -3.2330 c3        1 MOL     -0.185554
     74 C24         4.3830    5.6790   -2.1190 c         1 MOL      0.577319
     75 O13         3.6610    6.5750   -2.4060 o         1 MOL     -0.565863
     76 H32         4.5600    3.0530   -3.8100 hn        1 MOL      0.199667
     77 H33         4.5990    5.2250   -4.1090 h1        1 MOL      0.111129
     78 H34         6.2040    5.2990   -3.3190 h1        1 MOL      0.111129
     79 N8          4.6630    5.3280   -0.9090 n         1 MOL     -0.325997
     80 C25         3.9780    5.9050    0.2760 c3        1 MOL     -0.055389
     81 C26         3.4050    4.8190    1.1830 c         1 MOL      0.503933
     82 O14         4.1270    3.8580    1.4750 o         1 MOL     -0.479169
     83 C27         4.8740    6.7930    1.1600 c3        1 MOL      0.353276
     84 C28         5.2150    8.0840    0.4530 c3        1 MOL     -0.542520
     85 O15         4.1910    7.2170    2.2640 oh        1 MOL     -0.587978
     86 H35         5.2650    4.5220   -0.8700 hn        1 MOL      0.193397
     87 H36         3.1510    6.5690    0.0160 h1        1 MOL      0.088022
     88 H37         5.8040    6.2800    1.3840 h1        1 MOL     -0.009980
     89 H38         4.8780    7.6020    2.8250 ho        1 MOL      0.400376
     90 H39         5.8900    8.7350    1.0150 hc        1 MOL      0.152484
     91 H40         5.7170    7.7310   -0.4540 hc        1 MOL      0.152484
     92 H41         4.3000    8.6340    0.2440 hc        1 MOL      0.152484
     93 N9          2.1260    4.9500    1.5140 n         1 MOL     -0.446571
     94 C29         1.4450    3.9120    2.2780 c3        1 MOL     -0.017437
     95 C30         0.2810    3.3570    1.3770 c         1 MOL      0.828925
     96 O16         0.3210    2.1750    1.0870 o         1 MOL     -0.548577
     97 C31         0.9470    4.4550    3.5970 c3        1 MOL      0.024550
     98 C32         1.9570    5.3090    4.4160 c3        1 MOL     -0.021082
     99 C33         0.3140    3.2660    4.4060 c3        1 MOL     -0.389424
    100 C34         3.2320    4.5830    4.7690 c3        1 MOL      0.057977
    101 H42         1.6750    5.8430    1.4470 hn        1 MOL      0.341643
    102 H43         2.1190    3.0960    2.5340 h1        1 MOL      0.077923
    103 H44         0.0860    5.0930    3.3900 hc        1 MOL     -0.006605
    104 H45         1.5220    5.5780    5.3780 hc        1 MOL      0.023968
    105 H46         2.1690    6.1850    3.8040 hc        1 MOL      0.023968
    106 H47        -0.2960    3.5530    5.2610 hc        1 MOL      0.110609
    107 H48        -0.2960    2.6210    3.7790 hc        1 MOL      0.110609
    108 H49         1.1370    2.6580    4.8010 hc        1 MOL      0.110609
    109 H50         3.7700    4.4440    3.8410 hc        1 MOL     -0.017457
    110 H51         3.8810    5.2270    5.3730 hc        1 MOL     -0.017457
    111 H52         3.1200    3.5990    5.2260 hc        1 MOL     -0.017457
    112 N10        -0.6670    4.2040    0.8480 n         1 MOL     -0.651663
    113 C35        -1.8270    3.7220    0.0080 c3        1 MOL      0.027709
    114 C36        -3.1170    4.5280    0.4030 c         1 MOL      0.717290
    115 O17        -3.0330    5.6370    0.8930 o         1 MOL     -0.524636
    116 C37        -1.6000    3.8920   -1.5280 c3        1 MOL      0.267916
    117 C38        -1.0530    5.2920   -1.8060 c3        1 MOL     -0.298049
    118 O18        -0.5780    3.0860   -2.0600 oh        1 MOL     -0.582860
    119 H53        -0.6530    5.1830    1.0850 hn        1 MOL      0.306572
    120 H54        -2.0260    2.6750    0.2230 h1        1 MOL      0.032427
    121 H55        -2.4940    3.7030   -2.1120 h1        1 MOL     -0.007961
    122 H56        -0.7170    3.1510   -3.0080 ho        1 MOL      0.401126
    123 H57         0.0100    5.2780   -1.5340 hc        1 MOL      0.083009
    124 H58        -1.1560    5.4870   -2.8700 hc        1 MOL      0.083009
    125 H59        -1.5730    6.0590   -1.2350 hc        1 MOL      0.083009
    126 N11        -4.2790    3.9770    0.0880 n         1 MOL     -0.679081
    127 C39        -5.5800    4.6640    0.2060 c3        1 MOL      0.031088
    128 C40        -6.5710    3.5970    0.7980 c         1 MOL      0.704053
    129 O19        -7.2440    3.9380    1.7960 o         1 MOL     -0.568074
    130 C41        -6.0900    5.3580   -1.0970 c3        1 MOL      0.215749
    131 C42        -7.5700    5.6920   -0.9900 c3        1 MOL     -0.173274
    132 O20        -5.9720    4.5410   -2.2380 oh        1 MOL     -0.624032
    133 H60        -4.1650    3.2580   -0.6080 hn        1 MOL      0.300793
    134 H61        -5.5090    5.4130    0.9940 h1        1 MOL      0.113407
    135 H62        -5.6600    6.3270   -1.3520 h1        1 MOL      0.050300
    136 H63        -5.7730    5.1280   -2.9760 ho        1 MOL      0.416528
    137 H64        -7.9780    6.3170   -1.7880 hc        1 MOL      0.047690
    138 H65        -8.1390    4.8130   -0.6940 hc        1 MOL      0.047690
    139 H66        -7.6000    6.3040   -0.0840 hc        1 MOL      0.047690
    140 N12        -6.7270    2.3790    0.2520 n         1 MOL     -0.554808
    141 C43        -7.5660    1.2800    0.7100 c3        1 MOL      0.024264
    142 C44        -6.9080   -0.0150    0.2200 c         1 MOL      0.465671
    143 O21        -6.6530   -0.3050   -0.9750 o         1 MOL     -0.516546
    144 C45        -9.0890    1.5170    0.3450 c3        1 MOL     -0.056771
    145 C46        -9.8880    0.2360    0.7760 c3        1 MOL     -0.281902
    146 C47       -11.3330    0.3330    0.2840 c3        1 MOL      0.073453
    147 C48       -12.1250   -0.6890    1.0530 c3        1 MOL     -0.037051
    148 N13       -13.5070   -0.4160    0.7820 n4        1 MOL     -0.068637
    149 H67        -6.2780    2.2120   -0.6390 hn        1 MOL      0.325682
    150 H68        -7.6440    1.2390    1.7960 h1        1 MOL      0.099573
    151 H69        -9.0580    1.6980   -0.7320 hc        1 MOL      0.081211
    152 H70        -9.4460    2.3780    0.9060 hc        1 MOL      0.081211
    153 H71        -9.8120    0.0730    1.8480 hc        1 MOL      0.122456
    154 H72        -9.5520   -0.6450    0.2250 hc        1 MOL      0.122456
    155 H73       -11.4430    0.3230   -0.8000 hc        1 MOL      0.014865
    156 H74       -11.6780    1.3440    0.4870 hc        1 MOL      0.014865
    157 H75       -11.8420   -0.7580    2.1040 hx        1 MOL      0.092456
    158 H76       -11.8750   -1.6810    0.6500 hx        1 MOL      0.092456
    159 H77       -13.6340    0.5770    0.8760 hn        1 MOL      0.158204
    160 H78       -13.7850   -0.5540   -0.1800 hn        1 MOL      0.158204
    161 H79       -14.1230   -0.9570    1.3700 hn        1 MOL      0.158204
    162 N14        -6.5650   -0.9060    1.1460 n         1 MOL     -0.493642
    163 C49        -5.8630   -2.1610    0.9180 c3        1 MOL      0.053479
    164 C50        -4.3610   -2.0760    0.7490 c         1 MOL      0.885148
    165 O22        -3.8420   -2.7520   -0.1490 o         1 MOL     -0.828702
    166 C51        -6.3190   -3.1070    1.9900 c3        1 MOL     -0.023262
    167 C52        -5.8150   -4.5290    1.8290 c3        1 MOL     -0.183194
    168 C53        -6.3270   -5.2990    0.6230 c         1 MOL      0.754781
    169 O23        -7.5720   -5.4160    0.3710 o         1 MOL     -0.704739
    170 O24        -5.4650   -5.8250   -0.0780 o         1 MOL     -0.704739
    171 H80        -6.7350   -0.5370    2.0710 hn        1 MOL      0.259548
    172 H81        -6.2320   -2.4780   -0.0650 h1        1 MOL      0.126490
    173 H82        -7.4090   -3.1540    1.9530 hc        1 MOL      0.018348
    174 H83        -6.0050   -2.7610    2.9760 hc        1 MOL      0.018348
    175 H84        -6.1590   -5.1180    2.6790 hc        1 MOL      0.040786
    176 H85        -4.7330   -4.5960    1.9680 hc        1 MOL      0.040786
    177 N15        -3.4910   -1.1860    1.3160 n         1 MOL     -0.573650
    178 C54        -3.6520   -0.7170    2.7500 c3        1 MOL     -0.251813
    179 H86        -3.2200   -1.4560    3.4240 h1        1 MOL      0.116975
    180 H87        -3.1390    0.2370    2.8800 h1        1 MOL      0.116975
    181 H88        -4.7110   -0.5950    2.9770 h1        1 MOL      0.116975
    182 H89        -2.5430   -1.1060    1.0020 hn        1 MOL      0.397515
    183 Ca1        -2.0740   -3.5420   -1.8910 Ca        1 MOL      1.682710
    184 O25        -4.2570   -4.9620   -2.1730 oh        1 MOL     -0.821421
    185 O26        -3.9460   -2.3720   -3.5790 oh        1 MOL     -0.821421
    186 H90        -4.7550   -5.2990   -1.4250 ho        1 MOL      0.406482
    187 H91        -4.0310   -1.4220   -3.5360 ho        1 MOL      0.406482
    188 H92        -4.8910   -4.9430   -2.8900 ho        1 MOL      0.406482
    189 H93        -4.8470   -2.6840   -3.7010 ho        1 MOL      0.406482
    190 O27        -2.0670   -4.6490   -4.4300 oh        1 MOL     -0.821421
    191 H94        -2.1230   -4.7260   -5.3870 ho        1 MOL      0.406482
    192 H95        -2.0180   -5.5490   -4.1110 ho        1 MOL      0.406482
    193 O28        -2.1650   -0.8690   -1.5490 oh        1 MOL     -0.821421
    194 H96        -1.3210   -0.4230   -1.6410 ho        1 MOL      0.406482
    195 H97        -2.7820   -0.1690   -1.3460 ho        1 MOL      0.406482
    196 O29        -2.7610   -5.3690    0.3960 oh        1 MOL     -0.821421
    197 H98        -3.6350   -5.3530    0.0020 ho        1 MOL      0.406482
    198 H99        -2.8870   -5.7940    1.2390 ho        1 MOL      0.406482
    199 O30        -0.4100   -2.7420    0.2430 oh        1 MOL     -0.821421
    200 H100       -0.4030   -1.8990    0.6910 ho        1 MOL      0.406482
    201 H101       -0.2800   -3.3840    0.9390 ho        1 MOL      0.406482
@<TRIPOS>BOND
     1    1    2 1   
     2    1    4 1   
     3    1    5 1   
     4    1    6 1   
     5    2    3 2   
     6    2    7 1   
     7    7    8 1   
     8    7   15 1   
     9    8    9 1   
    10    8   11 1   
    11    8   16 1   
    12    9   10 2   
    13    9   19 1   
    14   11   12 1   
    15   11   17 1   
    16   11   18 1   
    17   12   13 1   
    18   12   14 1   
    19   19   20 1   
    20   19   28 1   
    21   20   21 1   
    22   20   23 1   
    23   20   29 1   
    24   21   22 2   
    25   21   41 1   
    26   23   24 1   
    27   23   30 1   
    28   23   31 1   
    29   24   25 1   
    30   24   32 1   
    31   24   33 1   
    32   25   26 1   
    33   25   34 1   
    34   25   35 1   
    35   26   27 1   
    36   26   36 1   
    37   26   37 1   
    38   27   38 1   
    39   27   39 1   
    40   27   40 1   
    41   41   42 1   
    42   41   49 1   
    43   42   43 1   
    44   42   45 1   
    45   42   50 1   
    46   43   44 2   
    47   43   53 1   
    48   45   46 1   
    49   45   51 1   
    50   45   52 1   
    51   46   47 1   
    52   46   48 1   
    53   53   54 1   
    54   53   57 1   
    55   54   55 1   
    56   54   58 1   
    57   54   59 1   
    58   55   56 2   
    59   55   60 1   
    60   60   61 1   
    61   60   68 1   
    62   61   62 1   
    63   61   64 1   
    64   61   69 1   
    65   62   63 2   
    66   62   72 1   
    67   64   65 1   
    68   64   70 1   
    69   64   71 1   
    70   65   66 1   
    71   65   67 1   
    72   72   73 1   
    73   72   76 1   
    74   73   74 1   
    75   73   77 1   
    76   73   78 1   
    77   74   75 2   
    78   74   79 1   
    79   79   80 1   
    80   79   86 1   
    81   80   81 1   
    82   80   83 1   
    83   80   87 1   
    84   81   82 2   
    85   81   93 1   
    86   83   84 1   
    87   83   85 1   
    88   83   88 1   
    89   84   90 1   
    90   84   91 1   
    91   84   92 1   
    92   85   89 1   
    93   93   94 1   
    94   93  101 1   
    95   94   95 1   
    96   94   97 1   
    97   94  102 1   
    98   95   96 2   
    99   95  112 1   
   100   97   98 1   
   101   97   99 1   
   102   97  103 1   
   103   98  100 1   
   104   98  104 1   
   105   98  105 1   
   106   99  106 1   
   107   99  107 1   
   108   99  108 1   
   109  100  109 1   
   110  100  110 1   
   111  100  111 1   
   112  112  113 1   
   113  112  119 1   
   114  113  114 1   
   115  113  116 1   
   116  113  120 1   
   117  114  115 2   
   118  114  126 1   
   119  116  117 1   
   120  116  118 1   
   121  116  121 1   
   122  117  123 1   
   123  117  124 1   
   124  117  125 1   
   125  118  122 1   
   126  126  127 1   
   127  126  133 1   
   128  127  128 1   
   129  127  130 1   
   130  127  134 1   
   131  128  129 2   
   132  128  140 1   
   133  130  131 1   
   134  130  132 1   
   135  130  135 1   
   136  131  137 1   
   137  131  138 1   
   138  131  139 1   
   139  132  136 1   
   140  140  141 1   
   141  140  149 1   
   142  141  142 1   
   143  141  144 1   
   144  141  150 1   
   145  142  143 2   
   146  142  162 1   
   147  144  145 1   
   148  144  151 1   
   149  144  152 1   
   150  145  146 1   
   151  145  153 1   
   152  145  154 1   
   153  146  147 1   
   154  146  155 1   
   155  146  156 1   
   156  147  148 1   
   157  147  157 1   
   158  147  158 1   
   159  148  159 1   
   160  148  160 1   
   161  148  161 1   
   162  162  163 1   
   163  162  171 1   
   164  163  164 1   
   165  163  166 1   
   166  163  172 1   
   167  164  165 2   
   168  164  177 1   
   169  166  167 1   
   170  166  173 1   
   171  166  174 1   
   172  167  168 1   
   173  167  175 1   
   174  167  176 1   
   175  168  169 1   
   176  168  170 1   
   177  177  178 1   
   178  177  182 1   
   179  178  179 1   
   180  178  180 1   
   181  178  181 1   
   182  184  186 1   
   183  184  188 1   
   184  185  187 1   
   185  185  189 1   
   186  190  191 1   
   187  190  192 1   
   188  193  194 1   
   189  193  195 1   
   190  196  197 1   
   191  196  198 1   
   192  199  200 1   
   193  199  201 1   
@<TRIPOS>SUBSTRUCTURE
     1 MOL         1 TEMP              0 ****  ****    0 ROOT
