@<TRIPOS>MOLECULE
MOL
  181   177     1     0     0
SMALL
resp


@<TRIPOS>ATOM
      1 C1        -10.1340    6.6970    0.9020 c3        1 MOL     -0.359077
      2 C2         -9.3810    5.8150   -0.0330 c         1 MOL      0.673310
      3 O1         -8.6490    6.2480   -0.9960 o         1 MOL     -0.612220
      4 H1         -9.5040    6.9390    1.7580 hc        1 MOL      0.100855
      5 H2        -10.4160    7.6160    0.3880 hc        1 MOL      0.100855
      6 H3        -11.0310    6.1830    1.2450 hc        1 MOL      0.100855
      7 N1         -9.4330    4.5040    0.0720 n         1 MOL     -0.646678
      8 C3        -10.2500    3.6240    0.9480 c3        1 MOL      0.103085
      9 C4        -10.7110    2.3340    0.3530 c         1 MOL      0.625906
     10 O2         -9.9990    1.6670   -0.3620 o         1 MOL     -0.575124
     11 C5         -9.4410    3.3840    2.2290 c3        1 MOL     -0.089504
     12 C6         -8.0410    2.7850    2.0970 c         1 MOL      0.654161
     13 O3         -7.5500    2.4470    3.1680 o         1 MOL     -0.659323
     14 O4         -7.5010    2.5390    1.0160 o         1 MOL     -0.659323
     15 H4         -8.6920    4.0790   -0.4620 hn        1 MOL      0.414750
     16 H5        -11.1480    4.1930    1.2260 h1        1 MOL      0.017866
     17 H6        -10.0790    2.7470    2.8490 hc        1 MOL      0.020857
     18 H7         -9.4040    4.3510    2.7230 hc        1 MOL      0.020857
     19 N2        -11.9310    1.9090    0.6750 n         1 MOL     -0.634004
     20 C7        -12.6060    0.7480    0.2090 c3        1 MOL      0.414261
     21 C8        -12.0290   -0.6790    0.4780 c         1 MOL      0.256203
     22 O5        -12.7730   -1.5960    0.8140 o         1 MOL     -0.535455
     23 C9        -13.0560    0.9420   -1.2300 c3        1 MOL     -0.373594
     24 H8        -12.4650    2.5270    1.2530 hn        1 MOL      0.323343
     25 H9        -13.5360    0.7370    0.7790 h1        1 MOL     -0.005957
     26 H10       -13.6450    1.8510   -1.3290 hc        1 MOL      0.106077
     27 H11       -12.2220    0.8860   -1.9350 hc        1 MOL      0.106077
     28 H12       -13.7560    0.1510   -1.5170 hc        1 MOL      0.106077
     29 N3        -10.7150   -0.8840    0.3110 n         1 MOL      0.011855
     30 C10       -10.1050   -2.2400    0.4010 c3        1 MOL     -0.030565
     31 C11        -8.7690   -2.2260    1.0700 c         1 MOL      0.337299
     32 O6         -8.1780   -1.1590    1.0980 o         1 MOL     -0.436434
     33 C12        -9.9640   -2.8550   -1.0160 c3        1 MOL      0.142750
     34 C13        -9.4870   -1.8830   -2.1280 c         1 MOL      0.574683
     35 O7         -9.9760   -2.0590   -3.3180 o         1 MOL     -0.688242
     36 O8         -8.8050   -0.8830   -1.8120 o         1 MOL     -0.688242
     37 H13       -10.1480   -0.0740    0.1150 hn        1 MOL      0.035999
     38 H14       -10.7230   -2.9100    1.0000 h1        1 MOL      0.039687
     39 H15       -10.9680   -3.1680   -1.2650 hc        1 MOL     -0.030671
     40 H16        -9.3380   -3.7480   -1.0550 hc        1 MOL     -0.030671
     41 N4         -8.3650   -3.3200    1.6610 n         1 MOL     -0.280464
     42 C14        -7.0590   -3.5050    2.3420 c3        1 MOL     -0.245973
     43 C15        -5.9270   -3.1770    1.4330 c         1 MOL      0.811919
     44 O9         -5.8520   -3.6710    0.3100 o         1 MOL     -0.595430
     45 H17        -8.9740   -4.1240    1.6080 hn        1 MOL      0.267067
     46 H18        -6.8530   -4.5040    2.7210 h1        1 MOL      0.123636
     47 H19        -7.0170   -2.8660    3.2210 h1        1 MOL      0.123636
     48 N5         -4.9440   -2.4470    1.9850 n         1 MOL     -0.829883
     49 C16        -3.7720   -1.9160    1.2700 c3        1 MOL      0.684653
     50 C17        -2.6300   -2.8570    1.2040 c         1 MOL      0.415931
     51 O10        -2.4420   -3.6470    2.1380 o         1 MOL     -0.547889
     52 C18        -3.4170   -0.4930    1.8550 c3        1 MOL     -0.397129
     53 C19        -4.6790    0.4030    1.8140 c         1 MOL      0.688243
     54 N6         -4.9190    1.2780    2.7200 n         1 MOL     -0.667991
     55 O11        -5.4990    0.2830    0.8950 o         1 MOL     -0.685272
     56 H20        -5.0400   -2.2640    2.9700 hn        1 MOL      0.361040
     57 H21        -4.0740   -1.7890    0.2300 h1        1 MOL     -0.193685
     58 H22        -2.6380   -0.1330    1.1760 hc        1 MOL      0.106519
     59 H23        -3.0980   -0.6650    2.8790 hc        1 MOL      0.106519
     60 H24        -4.2670    1.4880    3.4630 hn        1 MOL      0.350733
     61 H25        -5.7660    1.7980    2.5490 hn        1 MOL      0.350733
     62 N7         -1.7970   -2.8260    0.1420 n         1 MOL     -0.385719
     63 C20        -0.6530   -3.7080   -0.0780 c3        1 MOL     -0.028096
     64 C21        -0.0740   -3.7220   -1.4990 c         1 MOL      0.593249
     65 O12        -0.6740   -3.1800   -2.3960 o         1 MOL     -0.597246
     66 H26        -2.0560   -2.1870   -0.5970 hn        1 MOL      0.272274
     67 H27        -0.8200   -4.7570    0.1520 h1        1 MOL      0.107180
     68 H28         0.1650   -3.2750    0.5050 h1        1 MOL      0.107180
     69 N8          0.9860   -4.4420   -1.8350 n         1 MOL     -0.377093
     70 C22         1.8210   -5.4050   -1.0000 c3        1 MOL     -0.252910
     71 C23         2.9260   -4.5780   -0.2240 c         1 MOL      0.520991
     72 O13         3.3720   -5.0440    0.8290 o         1 MOL     -0.531850
     73 C24         2.4660   -6.4080   -1.9110 c3        1 MOL      0.386918
     74 C25         1.4160   -7.3290   -2.5540 c3        1 MOL     -0.289629
     75 O14         3.1970   -5.7000   -2.9320 oh        1 MOL     -0.587410
     76 H29         1.2250   -4.3990   -2.8120 hn        1 MOL      0.305755
     77 H30         1.1060   -5.8340   -0.2920 h1        1 MOL      0.124939
     78 H31         3.1280   -7.0860   -1.3720 h1        1 MOL      0.022852
     79 H32         3.6810   -6.4200   -3.3530 ho        1 MOL      0.375110
     80 H33         0.5980   -6.7700   -2.9990 hc        1 MOL      0.067139
     81 H34         1.8590   -7.9930   -3.3030 hc        1 MOL      0.067139
     82 H35         1.0760   -8.0260   -1.7850 hc        1 MOL      0.067139
     83 N9          3.4040   -3.4390   -0.7730 n         1 MOL     -0.382410
     84 C26         4.3980   -2.4970   -0.1860 c3        1 MOL     -0.157394
     85 C27         3.8480   -1.5200    0.7910 c         1 MOL      0.706331
     86 O15         2.6040   -1.2790    0.7630 o         1 MOL     -0.604116
     87 C28         5.2270   -1.7570   -1.2960 c3        1 MOL      0.238196
     88 C29         4.3990   -0.7540   -2.1120 c3        1 MOL      0.024814
     89 C30         6.0770   -2.7170   -2.2480 c3        1 MOL     -0.385009
     90 C31         5.3250    0.2250   -2.8640 c3        1 MOL     -0.074096
     91 H36         2.9510   -3.1350   -1.6190 hn        1 MOL      0.246586
     92 H37         5.0940   -3.1440    0.3370 h1        1 MOL      0.174839
     93 H38         5.9130   -1.1280   -0.7420 hc        1 MOL     -0.039721
     94 H39         3.7720   -0.1400   -1.4680 hc        1 MOL      0.008559
     95 H40         3.7680   -1.2970   -2.8200 hc        1 MOL      0.008559
     96 H41         6.8810   -2.1290   -2.6940 hc        1 MOL      0.080754
     97 H42         6.5830   -3.4940   -1.6850 hc        1 MOL      0.080754
     98 H43         5.3870   -3.1670   -2.9520 hc        1 MOL      0.080754
     99 H44         6.0450    0.7060   -2.2090 hc        1 MOL      0.014600
    100 H45         5.8930   -0.2980   -3.6200 hc        1 MOL      0.014600
    101 H46         4.7400    0.9770   -3.4080 hc        1 MOL      0.014600
    102 N10         4.6360   -0.9560    1.6760 n         1 MOL     -0.643794
    103 C32         6.0170   -1.2640    2.1280 c3        1 MOL      0.568612
    104 C33         7.1180   -0.3640    1.6250 c         1 MOL      0.582373
    105 O16         6.9540    0.8410    1.4640 o         1 MOL     -0.638320
    106 C34         5.9660   -1.3450    3.5990 c3        1 MOL     -0.341055
    107 C35         7.2290   -2.0690    4.1030 c         1 MOL      0.711348
    108 O17         8.0200   -1.6510    4.9600 o         1 MOL     -0.712248
    109 O18         7.5950   -3.0600    3.4390 o         1 MOL     -0.712248
    110 H47         4.2310   -0.2390    2.2480 hn        1 MOL      0.313267
    111 H48         6.1880   -2.2700    1.7570 h1        1 MOL     -0.140813
    112 H49         5.0530   -1.8830    3.8570 hc        1 MOL      0.047782
    113 H50         5.9190   -0.3430    4.0170 hc        1 MOL      0.047782
    114 N11         8.2390   -0.9990    1.3620 n         1 MOL     -0.631245
    115 C36         9.4460   -0.3180    0.8620 c3        1 MOL      0.485455
    116 C37         9.3530   -0.2440   -0.6570 c         1 MOL      0.311720
    117 O19         9.0210   -1.2390   -1.2750 o         1 MOL     -0.489040
    118 C38        10.5700   -1.1840    1.3290 c3        1 MOL     -0.249747
    119 C39        11.9060   -0.5530    1.1730 ca        1 MOL      0.149859
    120 C40        12.6950   -0.7870    0.0470 ca        1 MOL     -0.201535
    121 C41        12.2360    0.4830    2.0290 ca        1 MOL     -0.201535
    122 C42        13.9090   -0.1030   -0.1560 ca        1 MOL     -0.077009
    123 C43        13.4110    1.2750    1.9000 ca        1 MOL     -0.077009
    124 C44        14.3140    0.8940    0.8110 ca        1 MOL     -0.207168
    125 H51         8.3880   -1.9320    1.7080 hn        1 MOL      0.297246
    126 H52         9.5570    0.6880    1.2650 h1        1 MOL      0.008915
    127 H53        10.5410   -2.1060    0.7520 hc        1 MOL      0.091658
    128 H54        10.3760   -1.4720    2.3670 hc        1 MOL      0.091658
    129 H55        12.3480   -1.4890   -0.6960 ha        1 MOL      0.127905
    130 H56        11.4820    0.8290    2.7200 ha        1 MOL      0.127905
    131 H57        14.6090   -0.3420   -0.9420 ha        1 MOL      0.106370
    132 H58        13.5610    2.1280    2.5390 ha        1 MOL      0.106370
    133 H59        15.1250    1.5570    0.5140 ha        1 MOL      0.108745
    134 N12         9.8830    0.8430   -1.2450 n         1 MOL     -0.132959
    135 C45        10.2720    2.1180   -0.6740 c3        1 MOL     -0.069370
    136 C46         9.1160    2.9200   -0.0100 c         1 MOL      0.385092
    137 O20         9.4510    3.7220    0.8890 o         1 MOL     -0.546413
    138 C47        10.9400    2.8930   -1.8860 c3        1 MOL     -0.088753
    139 C48        10.1190    2.4490   -3.0340 c3        1 MOL      0.011703
    140 C49         9.8180    0.9880   -2.6900 c3        1 MOL     -0.040647
    141 H60        10.9680    2.0130    0.1530 h1        1 MOL      0.096004
    142 H61        10.8540    3.9760   -1.8410 hc        1 MOL      0.047472
    143 H62        11.9840    2.6450   -2.0630 hc        1 MOL      0.047472
    144 H63         9.1000    2.8370   -3.0790 hc        1 MOL      0.021043
    145 H64        10.5330    2.5760   -4.0350 hc        1 MOL      0.021043
    146 H65         8.8520    0.6830   -3.0920 h1        1 MOL      0.040637
    147 H66        10.4870    0.2840   -3.1840 h1        1 MOL      0.040637
    148 N13         7.8820    2.9720   -0.5570 n         1 MOL     -0.042997
    149 C50         6.8310    3.8760   -0.2580 c3        1 MOL      0.033458
    150 C51         7.1090    5.2820   -0.9440 c         1 MOL      0.382130
    151 O21         7.2210    5.2740   -2.1550 o         1 MOL     -0.544105
    152 C52         5.5720    3.2650   -0.9570 c3        1 MOL      0.110133
    153 C53         4.3370    4.1890   -0.7390 c3        1 MOL     -0.235891
    154 C54         3.0620    3.4090   -1.0260 c         1 MOL      0.691965
    155 O22         2.4290    2.8770   -0.0570 o         1 MOL     -0.728713
    156 O23         2.7040    3.3120   -2.2430 o         1 MOL     -0.728713
    157 H67         7.7590    2.3320   -1.3250 hn        1 MOL      0.140700
    158 H68         6.7500    3.8720    0.8360 h1        1 MOL      0.073980
    159 H69         5.3690    2.2680   -0.5660 hc        1 MOL      0.024885
    160 H70         5.8000    3.1090   -2.0070 hc        1 MOL      0.024885
    161 H71         4.3430    5.0370   -1.4170 hc        1 MOL      0.018713
    162 H72         4.3760    4.4280    0.3200 hc        1 MOL      0.018713
    163 N14         7.2200    6.4970   -0.3110 n         1 MOL     -0.322902
    164 C55         7.1320    6.7120    1.1570 c3        1 MOL     -0.107859
    165 H73         8.0050    6.2740    1.6400 h1        1 MOL      0.066301
    166 H74         7.1010    7.7810    1.3660 h1        1 MOL      0.066301
    167 H75         6.2290    6.2390    1.5400 h1        1 MOL      0.066301
    168 H76         7.3350    7.2850   -0.9320 hn        1 MOL      0.266747
    169 Ca1        -7.2380    0.8080   -0.9170 Ca        1 MOL      1.728827
    170 O24        -7.9000    3.0820   -2.0590 oh        1 MOL     -0.842011
    171 H77        -7.3280    3.5460   -2.6680 ho        1 MOL      0.421426
    172 H78        -8.7170    2.9630   -2.5430 ho        1 MOL      0.421426
    173 O25        -4.8930    2.3380   -1.4390 oh        1 MOL     -0.842011
    174 H79        -4.1070    1.9290   -1.0720 ho        1 MOL      0.421426
    175 H80        -4.5690    3.1040   -1.9060 ho        1 MOL      0.421426
    176 O26        -6.7590    0.7630   -3.7130 oh        1 MOL     -0.842011
    177 H81        -7.2650   -0.0070   -3.9920 ho        1 MOL      0.421426
    178 H82        -6.0140    0.7920   -4.3190 ho        1 MOL      0.421426
    179 O27        -6.0600   -1.4850   -1.5260 oh        1 MOL     -0.842011
    180 H83        -5.2360   -1.4740   -2.0120 ho        1 MOL      0.421426
    181 H84        -6.0580   -2.3300   -1.0770 ho        1 MOL      0.421426
@<TRIPOS>BOND
     1    1    2 1   
     2    1    4 1   
     3    1    5 1   
     4    1    6 1   
     5    2    3 2   
     6    2    7 1   
     7    7    8 1   
     8    7   15 1   
     9    8    9 1   
    10    8   11 1   
    11    8   16 1   
    12    9   10 2   
    13    9   19 1   
    14   11   12 1   
    15   11   17 1   
    16   11   18 1   
    17   12   13 1   
    18   12   14 1   
    19   19   20 1   
    20   19   24 1   
    21   20   21 1   
    22   20   23 1   
    23   20   25 1   
    24   21   22 2   
    25   21   29 1   
    26   23   26 1   
    27   23   27 1   
    28   23   28 1   
    29   29   30 1   
    30   29   37 1   
    31   30   31 1   
    32   30   33 1   
    33   30   38 1   
    34   31   32 2   
    35   31   41 1   
    36   33   34 1   
    37   33   39 1   
    38   33   40 1   
    39   34   35 1   
    40   34   36 1   
    41   41   42 1   
    42   41   45 1   
    43   42   43 1   
    44   42   46 1   
    45   42   47 1   
    46   43   44 2   
    47   43   48 1   
    48   48   49 1   
    49   48   56 1   
    50   49   50 1   
    51   49   52 1   
    52   49   57 1   
    53   50   51 2   
    54   50   62 1   
    55   52   53 1   
    56   52   58 1   
    57   52   59 1   
    58   53   54 1   
    59   53   55 2   
    60   54   60 1   
    61   54   61 1   
    62   62   63 1   
    63   62   66 1   
    64   63   64 1   
    65   63   67 1   
    66   63   68 1   
    67   64   65 2   
    68   64   69 1   
    69   69   70 1   
    70   69   76 1   
    71   70   71 1   
    72   70   73 1   
    73   70   77 1   
    74   71   72 2   
    75   71   83 1   
    76   73   74 1   
    77   73   75 1   
    78   73   78 1   
    79   74   80 1   
    80   74   81 1   
    81   74   82 1   
    82   75   79 1   
    83   83   84 1   
    84   83   91 1   
    85   84   85 1   
    86   84   87 1   
    87   84   92 1   
    88   85   86 2   
    89   85  102 1   
    90   87   88 1   
    91   87   89 1   
    92   87   93 1   
    93   88   90 1   
    94   88   94 1   
    95   88   95 1   
    96   89   96 1   
    97   89   97 1   
    98   89   98 1   
    99   90   99 1   
   100   90  100 1   
   101   90  101 1   
   102  102  103 1   
   103  102  110 1   
   104  103  104 1   
   105  103  106 1   
   106  103  111 1   
   107  104  105 2   
   108  104  114 1   
   109  106  107 1   
   110  106  112 1   
   111  106  113 1   
   112  107  108 1   
   113  107  109 1   
   114  114  115 1   
   115  114  125 1   
   116  115  116 1   
   117  115  118 1   
   118  115  126 1   
   119  116  117 2   
   120  116  134 1   
   121  118  119 1   
   122  118  127 1   
   123  118  128 1   
   124  119  120 ar  
   125  119  121 ar  
   126  120  122 ar  
   127  120  129 1   
   128  121  123 ar  
   129  121  130 1   
   130  122  124 ar  
   131  122  131 1   
   132  123  124 ar  
   133  123  132 1   
   134  124  133 1   
   135  134  135 1   
   136  134  140 1   
   137  135  136 1   
   138  135  138 1   
   139  135  141 1   
   140  136  137 2   
   141  136  148 1   
   142  138  139 1   
   143  138  142 1   
   144  138  143 1   
   145  139  140 1   
   146  139  144 1   
   147  139  145 1   
   148  140  146 1   
   149  140  147 1   
   150  148  149 1   
   151  148  157 1   
   152  149  150 1   
   153  149  152 1   
   154  149  158 1   
   155  150  151 2   
   156  150  163 1   
   157  152  153 1   
   158  152  159 1   
   159  152  160 1   
   160  153  154 1   
   161  153  161 1   
   162  153  162 1   
   163  154  155 1   
   164  154  156 1   
   165  163  164 1   
   166  163  168 1   
   167  164  165 1   
   168  164  166 1   
   169  164  167 1   
   170  170  171 1   
   171  170  172 1   
   172  173  174 1   
   173  173  175 1   
   174  176  177 1   
   175  176  178 1   
   176  179  180 1   
   177  179  181 1   
@<TRIPOS>SUBSTRUCTURE
     1 MOL         1 TEMP              0 ****  ****    0 ROOT
