@<TRIPOS>MOLECULE
MOL
  192   187     1     0     0
SMALL
resp


@<TRIPOS>ATOM
      1 C1         -9.3270    1.1020   -2.4920 c3        1 MOL     -0.450759
      2 C2         -8.2850    0.3890   -1.6280 c         1 MOL      0.775929
      3 O1         -7.2290   -0.0480   -2.1220 o         1 MOL     -0.665011
      4 H1         -9.2270    2.1800   -2.3660 hc        1 MOL      0.120698
      5 H2         -9.1710    0.8430   -3.5390 hc        1 MOL      0.120698
      6 H3        -10.3270    0.7930   -2.1860 hc        1 MOL      0.120698
      7 N1         -8.5420    0.1700   -0.3080 n         1 MOL     -0.727679
      8 C3         -7.5990   -0.1800    0.8080 c3        1 MOL      0.101635
      9 C4         -7.1340   -1.6240    0.8670 c         1 MOL      0.419856
     10 O2         -7.2070   -2.2760    1.8460 o         1 MOL     -0.424485
     11 C5         -8.0080    0.4180    2.1620 c3        1 MOL     -0.170897
     12 C6         -9.3950   -0.0410    2.5100 c         1 MOL      0.625743
     13 O3        -10.1620   -0.7360    1.7400 o         1 MOL     -0.626231
     14 O4         -9.8340    0.1690    3.6860 o         1 MOL     -0.626231
     15 H4         -9.3910    0.6180    0.0070 hn        1 MOL      0.332540
     16 H5         -6.7300    0.4020    0.4710 h1        1 MOL      0.112381
     17 H6         -7.9860    1.5000    2.0830 hc        1 MOL      0.072944
     18 H7         -7.1870    0.2760    2.8610 hc        1 MOL      0.072944
     19 N2         -6.7350   -2.1720   -0.3170 n         1 MOL     -0.110146
     20 C7         -6.2330   -3.5170   -0.4720 c3        1 MOL      0.123277
     21 C8         -4.8630   -3.5560    0.1170 c         1 MOL      0.277979
     22 O5         -4.5920   -4.3800    0.9960 o         1 MOL     -0.509513
     23 C9         -6.3570   -3.8590   -1.9790 c3        1 MOL      0.012458
     24 C10        -7.6920   -4.6440   -2.2460 c3        1 MOL      0.082920
     25 C11        -9.0840   -3.9830   -2.0740 c3        1 MOL      0.003627
     26 C12       -10.2560   -4.8540   -2.5060 c3        1 MOL     -0.033014
     27 N3        -10.1930   -5.3280   -3.9090 n4        1 MOL     -0.246150
     28 H8         -6.8140   -1.5560   -1.1100 hn        1 MOL      0.098395
     29 H9         -6.7910   -4.2600    0.0930 h1        1 MOL      0.036242
     30 H10        -5.4800   -4.3660   -2.3710 hc        1 MOL     -0.006302
     31 H11        -6.3810   -2.9780   -2.6210 hc        1 MOL     -0.006302
     32 H12        -7.7150   -5.5500   -1.6380 hc        1 MOL     -0.023906
     33 H13        -7.4910   -5.0710   -3.2280 hc        1 MOL     -0.023906
     34 H14        -9.0730   -3.1140   -2.7380 hc        1 MOL      0.035844
     35 H15        -9.1720   -3.6330   -1.0450 hc        1 MOL      0.035844
     36 H16       -11.2240   -4.3580   -2.4920 hx        1 MOL      0.100260
     37 H17       -10.4280   -5.7230   -1.8670 hx        1 MOL      0.100260
     38 H18        -9.7120   -4.7180   -4.5530 hn        1 MOL      0.245044
     39 H19        -9.8070   -6.2540   -4.0350 hn        1 MOL      0.245044
     40 H20       -11.1330   -5.4140   -4.2650 hn        1 MOL      0.245044
     41 N4         -3.9330   -2.6860   -0.1600 n         1 MOL     -0.236105
     42 C13        -3.9110   -1.4380   -0.9610 c3        1 MOL      0.115067
     43 C14        -3.9310   -0.2120   -0.0120 c         1 MOL      0.050965
     44 O6         -3.8200   -0.3680    1.2390 o         1 MOL     -0.354624
     45 C15        -2.6570   -1.3420   -1.8050 c3        1 MOL     -0.485119
     46 C16        -1.2940   -1.6150   -1.1310 c         1 MOL      0.798820
     47 O7         -0.9440   -0.9570   -0.0990 o         1 MOL     -0.668664
     48 O8         -0.5440   -2.5430   -1.5680 o         1 MOL     -0.668664
     49 H21        -3.0140   -2.9150    0.1920 hn        1 MOL      0.309267
     50 H22        -4.8110   -1.4200   -1.5730 h1        1 MOL      0.137700
     51 H23        -2.5950   -0.3260   -2.1970 hc        1 MOL      0.120010
     52 H24        -2.9200   -2.0510   -2.5870 hc        1 MOL      0.120010
     53 N5         -4.0940    1.0090   -0.5430 n         1 MOL     -0.237631
     54 C17        -4.1640    2.2230    0.3300 c3        1 MOL     -0.021722
     55 C18        -2.8250    2.7120    0.9390 c         1 MOL      0.479002
     56 O9         -1.7770    2.0250    0.7290 o         1 MOL     -0.454650
     57 H25        -4.1230    0.9960   -1.5530 hn        1 MOL      0.273762
     58 H26        -4.9040    2.2050    1.1230 h1        1 MOL      0.060798
     59 H27        -4.6960    2.9920   -0.2160 h1        1 MOL      0.060798
     60 N6         -2.8720    3.8260    1.6520 n         1 MOL     -0.382953
     61 C19        -1.7790    4.6550    2.1800 c3        1 MOL      0.051567
     62 C20        -2.0980    6.1930    2.1640 c         1 MOL      0.415923
     63 O10        -3.2880    6.5340    2.1730 o         1 MOL     -0.529830
     64 C21        -1.5940    4.2870    3.6810 c3        1 MOL     -0.100704
     65 C22        -1.0290    2.8480    3.8330 c         1 MOL      0.512341
     66 O11        -1.6830    2.0220    4.4320 o         1 MOL     -0.601908
     67 O12        -0.0230    2.5150    3.1350 o         1 MOL     -0.601908
     68 H28        -3.7860    4.2550    1.7390 hn        1 MOL      0.281909
     69 H29        -0.8730    4.3890    1.6340 h1        1 MOL      0.090757
     70 H30        -2.5260    4.3840    4.2410 hc        1 MOL      0.056560
     71 H31        -0.9530    4.9460    4.2600 hc        1 MOL      0.056560
     72 N7         -1.1690    7.1240    2.1230 n         1 MOL     -0.358105
     73 C23         0.2840    6.9680    2.4750 c3        1 MOL     -0.064871
     74 C24         1.0130    6.4950    1.2060 c         1 MOL      0.570546
     75 O13         0.6980    6.9580    0.1370 o         1 MOL     -0.515662
     76 H32        -1.5510    8.0330    1.9320 hn        1 MOL      0.296216
     77 H33         0.3520    6.2070    3.2490 h1        1 MOL      0.078994
     78 H34         0.6250    7.9310    2.8720 h1        1 MOL      0.078994
     79 N8          1.9450    5.5540    1.3710 n         1 MOL     -0.552183
     80 C25         2.6850    5.0090    0.2090 c3        1 MOL      0.026548
     81 C26         1.8460    3.8180   -0.4550 c         1 MOL      0.807756
     82 O14         1.1600    3.1500    0.2540 o         1 MOL     -0.723006
     83 C27         4.0270    4.5070    0.6820 c3        1 MOL      0.429724
     84 C28         4.9920    3.9560   -0.3450 c3        1 MOL     -0.543983
     85 O15         4.0740    3.4950    1.6600 oh        1 MOL     -0.683204
     86 H35         2.1400    5.1390    2.2680 hn        1 MOL      0.318080
     87 H36         2.9010    5.7730   -0.5400 h1        1 MOL      0.059470
     88 H37         4.4950    5.4050    1.0870 h1        1 MOL      0.006078
     89 H38         4.9330    3.0870    1.7710 ho        1 MOL      0.443996
     90 H39         5.0260    4.5230   -1.2800 hc        1 MOL      0.125536
     91 H40         5.9530    3.8340    0.1440 hc        1 MOL      0.125536
     92 H41         4.7730    2.9450   -0.6980 hc        1 MOL      0.125536
     93 N9          1.9790    3.6020   -1.7800 n         1 MOL     -0.630531
     94 C29         1.2930    2.6970   -2.6770 c3        1 MOL      0.015924
     95 C30         1.5740    1.2270   -2.3620 c         1 MOL      0.643720
     96 O16         1.1130    0.7590   -1.3210 o         1 MOL     -0.608465
     97 C31        -0.2020    3.2420   -2.8120 c3        1 MOL      0.287534
     98 C32        -0.5030    4.7800   -2.9700 c3        1 MOL     -0.046011
     99 C33        -0.8310    2.5270   -4.0320 c3        1 MOL     -0.402378
    100 C34         0.0770    5.4510   -4.1790 c3        1 MOL     -0.308863
    101 H42         2.5290    4.3080   -2.2500 hn        1 MOL      0.307043
    102 H43         1.7370    2.8700   -3.6550 h1        1 MOL      0.037059
    103 H44        -0.7480    2.9000   -1.9320 hc        1 MOL     -0.078288
    104 H45        -0.0510    5.3420   -2.1580 hc        1 MOL      0.055632
    105 H46        -1.5780    4.9490   -2.8820 hc        1 MOL      0.055632
    106 H47        -0.2750    2.8520   -4.9130 hc        1 MOL      0.103043
    107 H48        -0.9750    1.4750   -3.7850 hc        1 MOL      0.103043
    108 H49        -1.8360    2.9390   -4.1170 hc        1 MOL      0.103043
    109 H50        -0.1090    6.5130   -3.9740 hc        1 MOL      0.075341
    110 H51         1.1570    5.3910   -4.2810 hc        1 MOL      0.075341
    111 H52        -0.4420    5.0760   -5.0570 hc        1 MOL      0.075341
    112 N10         2.3170    0.5730   -3.1950 n         1 MOL     -0.438857
    113 C35         2.6240   -0.8620   -3.1020 c3        1 MOL     -0.045222
    114 C36         4.1560   -1.1770   -3.0720 c         1 MOL      0.503482
    115 O17         4.5280   -2.3610   -3.0230 o         1 MOL     -0.541734
    116 C37         1.8260   -1.8070   -4.0330 c3        1 MOL      0.297480
    117 C38         1.9460   -1.4480   -5.4940 c3        1 MOL     -0.464693
    118 O18         0.4400   -1.6400   -3.7720 oh        1 MOL     -0.556317
    119 H53         2.5840    0.9830   -4.0770 hn        1 MOL      0.259935
    120 H54         2.3510   -1.1810   -2.0950 h1        1 MOL      0.085794
    121 H55         2.0240   -2.8680   -3.9010 h1        1 MOL      0.058467
    122 H56         0.3070   -1.9480   -2.8690 ho        1 MOL      0.352813
    123 H57         1.6030   -2.2620   -6.1450 hc        1 MOL      0.119232
    124 H58         1.2140   -0.7120   -5.8210 hc        1 MOL      0.119232
    125 H59         2.9950   -1.3600   -5.7660 hc        1 MOL      0.119232
    126 N11         4.9940   -0.1280   -2.9470 n         1 MOL     -0.210547
    127 C39         6.4530   -0.2850   -2.8160 c3        1 MOL     -0.000597
    128 C40         6.7730   -0.7020   -1.4330 c         1 MOL      0.360138
    129 O19         7.2450    0.1530   -0.6340 o         1 MOL     -0.447475
    130 C41         7.1950    0.9680   -3.2930 c3        1 MOL      0.264837
    131 C42         7.2600    1.3330   -4.7930 c3        1 MOL     -0.265858
    132 O20         6.5460    2.0520   -2.7510 oh        1 MOL     -0.548739
    133 H60         4.6780    0.8190   -3.1210 hn        1 MOL      0.167563
    134 H61         6.7560   -1.0480   -3.5260 h1        1 MOL      0.054441
    135 H62         8.2080    0.9780   -2.8990 h1        1 MOL      0.060283
    136 H63         6.2720    2.5940   -3.4940 ho        1 MOL      0.383643
    137 H64         7.7390    0.5070   -5.3140 hc        1 MOL      0.066249
    138 H65         6.3090    1.3490   -5.3300 hc        1 MOL      0.066249
    139 H66         7.7220    2.3090   -4.9360 hc        1 MOL      0.066249
    140 N12         6.4340   -1.9870   -1.0560 n         1 MOL     -0.542944
    141 C43         6.4140   -2.7370    0.1990 c3        1 MOL      0.256558
    142 C44         5.1580   -2.3800    0.9270 c         1 MOL      0.396982
    143 O21         4.7150   -1.2430    1.0600 o         1 MOL     -0.436259
    144 C45         7.7190   -2.5860    0.9860 c3        1 MOL     -0.519311
    145 C46         9.0200   -2.8530    0.2080 c3        1 MOL      0.027521
    146 C47        10.2820   -2.9190    1.0370 c3        1 MOL     -0.086956
    147 C48        11.4180   -3.0190    0.0260 c3        1 MOL      0.048453
    148 N13        12.7520   -3.0270    0.6810 n4        1 MOL     -0.132477
    149 H67         6.0730   -2.4480   -1.8780 hn        1 MOL      0.302671
    150 H68         6.2960   -3.7880   -0.0590 h1        1 MOL      0.055846
    151 H69         7.6430   -3.3190    1.7910 hc        1 MOL      0.174636
    152 H70         7.7780   -1.5810    1.3920 hc        1 MOL      0.174636
    153 H71         9.2080   -2.0510   -0.4950 hc        1 MOL      0.060280
    154 H72         8.8570   -3.7650   -0.3720 hc        1 MOL      0.060280
    155 H73        10.3300   -3.7550    1.7360 hc        1 MOL      0.067214
    156 H74        10.2440   -1.9980    1.6050 hc        1 MOL      0.067214
    157 H75        11.2780   -2.1170   -0.5790 hx        1 MOL      0.056650
    158 H76        11.2780   -3.8890   -0.6110 hx        1 MOL      0.056650
    159 H77        12.9180   -3.8920    1.1770 hn        1 MOL      0.195222
    160 H78        13.4990   -2.9210    0.0060 hn        1 MOL      0.195222
    161 H79        12.7170   -2.3150    1.3940 hn        1 MOL      0.195222
    162 N14         4.4490   -3.3160    1.6160 n         1 MOL     -0.354641
    163 C49         3.1470   -3.1620    2.3450 c3        1 MOL      0.000494
    164 C50         2.0100   -2.7610    1.4650 c         1 MOL      0.346026
    165 O22         1.2340   -1.8130    1.7610 o         1 MOL     -0.511356
    166 C51         2.9050   -4.3410    3.2550 c3        1 MOL      0.200023
    167 C52         3.9120   -4.3510    4.3890 c3        1 MOL     -0.340975
    168 C53         3.7850   -5.6120    5.2820 c         1 MOL      0.724592
    169 O23         4.4370   -6.6650    5.0730 o         1 MOL     -0.634186
    170 O24         2.9740   -5.5880    6.1760 o         1 MOL     -0.634186
    171 H80         4.8320   -4.2480    1.5330 hn        1 MOL      0.254954
    172 H81         3.2110   -2.2530    2.9460 h1        1 MOL      0.138425
    173 H82         3.0490   -5.2850    2.7340 hc        1 MOL      0.023318
    174 H83         1.8920   -4.4060    3.6470 hc        1 MOL      0.023318
    175 H84         3.6860   -3.4880    5.0090 hc        1 MOL      0.041142
    176 H85         4.9480   -4.2420    4.0540 hc        1 MOL      0.041142
    177 N15         1.7960   -3.3680    0.2420 n         1 MOL     -0.227465
    178 C54         2.2000   -4.7170   -0.1480 c3        1 MOL      0.041302
    179 H86         2.7220   -5.1930    0.6820 h1        1 MOL      0.005084
    180 H87         1.3170   -5.3000   -0.4050 h1        1 MOL      0.005084
    181 H88         2.8650   -4.6620   -1.0110 h1        1 MOL      0.005084
    182 H89         1.1000   -2.8950   -0.3150 hn        1 MOL      0.259181
    183 Ca1         0.4860    0.7790    1.1800 Ca        1 MOL      1.793336
    184 O25         3.2080    0.8310    0.8310 oh        1 MOL     -0.870501
    185 H90         3.6870    0.0230    0.6620 ho        1 MOL      0.403826
    186 H91         3.8820    1.4960    0.8980 ho        1 MOL      0.403826
    187 O26         1.6790    0.6090    3.5760 oh        1 MOL     -0.870501
    188 H92         2.3490    0.5870    4.2650 ho        1 MOL      0.403826
    189 H93         0.9880    1.1580    3.9350 ho        1 MOL      0.403826
    190 O27        -1.5860   -0.1640    2.9520 oh        1 MOL     -0.870501
    191 H94        -1.7620    0.4530    3.6590 ho        1 MOL      0.403826
    192 H95        -2.4490   -0.3680    2.5940 ho        1 MOL      0.403826
@<TRIPOS>BOND
     1    1    2 1   
     2    1    4 1   
     3    1    5 1   
     4    1    6 1   
     5    2    3 2   
     6    2    7 1   
     7    7    8 1   
     8    7   15 1   
     9    8    9 1   
    10    8   11 1   
    11    8   16 1   
    12    9   10 2   
    13    9   19 1   
    14   11   12 1   
    15   11   17 1   
    16   11   18 1   
    17   12   13 1   
    18   12   14 1   
    19   19   20 1   
    20   19   28 1   
    21   20   21 1   
    22   20   23 1   
    23   20   29 1   
    24   21   22 2   
    25   21   41 1   
    26   23   24 1   
    27   23   30 1   
    28   23   31 1   
    29   24   25 1   
    30   24   32 1   
    31   24   33 1   
    32   25   26 1   
    33   25   34 1   
    34   25   35 1   
    35   26   27 1   
    36   26   36 1   
    37   26   37 1   
    38   27   38 1   
    39   27   39 1   
    40   27   40 1   
    41   41   42 1   
    42   41   49 1   
    43   42   43 1   
    44   42   45 1   
    45   42   50 1   
    46   43   44 2   
    47   43   53 1   
    48   45   46 1   
    49   45   51 1   
    50   45   52 1   
    51   46   47 1   
    52   46   48 1   
    53   53   54 1   
    54   53   57 1   
    55   54   55 1   
    56   54   58 1   
    57   54   59 1   
    58   55   56 2   
    59   55   60 1   
    60   60   61 1   
    61   60   68 1   
    62   61   62 1   
    63   61   64 1   
    64   61   69 1   
    65   62   63 2   
    66   62   72 1   
    67   64   65 1   
    68   64   70 1   
    69   64   71 1   
    70   65   66 1   
    71   65   67 1   
    72   72   73 1   
    73   72   76 1   
    74   73   74 1   
    75   73   77 1   
    76   73   78 1   
    77   74   75 2   
    78   74   79 1   
    79   79   80 1   
    80   79   86 1   
    81   80   81 1   
    82   80   83 1   
    83   80   87 1   
    84   81   82 2   
    85   81   93 1   
    86   83   84 1   
    87   83   85 1   
    88   83   88 1   
    89   84   90 1   
    90   84   91 1   
    91   84   92 1   
    92   85   89 1   
    93   93   94 1   
    94   93  101 1   
    95   94   95 1   
    96   94   97 1   
    97   94  102 1   
    98   95   96 2   
    99   95  112 1   
   100   97   98 1   
   101   97   99 1   
   102   97  103 1   
   103   98  100 1   
   104   98  104 1   
   105   98  105 1   
   106   99  106 1   
   107   99  107 1   
   108   99  108 1   
   109  100  109 1   
   110  100  110 1   
   111  100  111 1   
   112  112  113 1   
   113  112  119 1   
   114  113  114 1   
   115  113  116 1   
   116  113  120 1   
   117  114  115 2   
   118  114  126 1   
   119  116  117 1   
   120  116  118 1   
   121  116  121 1   
   122  117  123 1   
   123  117  124 1   
   124  117  125 1   
   125  118  122 1   
   126  126  127 1   
   127  126  133 1   
   128  127  128 1   
   129  127  130 1   
   130  127  134 1   
   131  128  129 2   
   132  128  140 1   
   133  130  131 1   
   134  130  132 1   
   135  130  135 1   
   136  131  137 1   
   137  131  138 1   
   138  131  139 1   
   139  132  136 1   
   140  140  141 1   
   141  140  149 1   
   142  141  142 1   
   143  141  144 1   
   144  141  150 1   
   145  142  143 2   
   146  142  162 1   
   147  144  145 1   
   148  144  151 1   
   149  144  152 1   
   150  145  146 1   
   151  145  153 1   
   152  145  154 1   
   153  146  147 1   
   154  146  155 1   
   155  146  156 1   
   156  147  148 1   
   157  147  157 1   
   158  147  158 1   
   159  148  159 1   
   160  148  160 1   
   161  148  161 1   
   162  162  163 1   
   163  162  171 1   
   164  163  164 1   
   165  163  166 1   
   166  163  172 1   
   167  164  165 2   
   168  164  177 1   
   169  166  167 1   
   170  166  173 1   
   171  166  174 1   
   172  167  168 1   
   173  167  175 1   
   174  167  176 1   
   175  168  169 1   
   176  168  170 1   
   177  177  178 1   
   178  177  182 1   
   179  178  179 1   
   180  178  180 1   
   181  178  181 1   
   182  184  185 1   
   183  184  186 1   
   184  187  188 1   
   185  187  189 1   
   186  190  191 1   
   187  190  192 1   
@<TRIPOS>SUBSTRUCTURE
     1 MOL         1 TEMP              0 ****  ****    0 ROOT
