@<TRIPOS>MOLECULE
MOL
  198   191     1     0     0
SMALL
resp


@<TRIPOS>ATOM
      1 C1         10.2610    4.3030   -4.2600 c3        1 MOL     -0.503250
      2 C2         10.3390    3.2090   -3.1080 c         1 MOL      0.669433
      3 O1          9.4040    2.4570   -2.8820 o         1 MOL     -0.542018
      4 H1         11.1860    4.8780   -4.2770 hc        1 MOL      0.130704
      5 H2         10.1220    3.8100   -5.2220 hc        1 MOL      0.130704
      6 H3          9.4210    4.9730   -4.0710 hc        1 MOL      0.130704
      7 N1         11.4100    3.4680   -2.3190 n         1 MOL     -0.447903
      8 C3         11.7190    2.8660   -1.0150 c3        1 MOL      0.146951
      9 C4         11.6130    1.3480   -0.8530 c         1 MOL      0.317541
     10 O2         11.7230    0.8480    0.2650 o         1 MOL     -0.442168
     11 C5         10.8960    3.6240    0.0480 c3        1 MOL     -0.252306
     12 C6         11.0430    5.1450    0.1770 c         1 MOL      0.746937
     13 O3         10.1800    5.8290    0.7890 o         1 MOL     -0.662420
     14 O4         12.0210    5.6650   -0.3430 o         1 MOL     -0.662420
     15 H4         12.1410    3.9630   -2.8090 hn        1 MOL      0.263664
     16 H5         12.7950    2.9120   -0.8660 h1        1 MOL      0.061449
     17 H6         11.1990    3.1550    0.9890 hc        1 MOL      0.076392
     18 H7          9.8410    3.5010   -0.1850 hc        1 MOL      0.076392
     19 N2         11.4270    0.6120   -1.9210 n         1 MOL     -0.277129
     20 C7         10.8670   -0.7840   -1.8840 c3        1 MOL      0.053302
     21 C8          9.6940   -0.8670   -0.8970 c         1 MOL      0.405704
     22 O5          9.5060   -1.8450   -0.1820 o         1 MOL     -0.499772
     23 C9         11.9670   -1.8020   -1.5530 c3        1 MOL      0.076347
     24 C10        13.1620   -1.7850   -2.5150 c3        1 MOL     -0.058449
     25 C11        14.2520   -2.8120   -2.0130 c3        1 MOL     -0.168386
     26 C12        15.4520   -2.4420   -2.9260 c3        1 MOL      0.054321
     27 N3         16.3340   -3.5900   -3.1160 n4        1 MOL     -0.329062
     28 H8         11.5820    1.0140   -2.8390 hn        1 MOL      0.163477
     29 H9         10.5170   -1.0580   -2.8820 h1        1 MOL      0.068452
     30 H10        11.5550   -2.8100   -1.6240 hc        1 MOL      0.009559
     31 H11        12.3050   -1.7920   -0.5080 hc        1 MOL      0.009559
     32 H12        13.6180   -0.8000   -2.5100 hc        1 MOL      0.015307
     33 H13        12.7580   -1.9820   -3.5000 hc        1 MOL      0.015307
     34 H14        14.0510   -3.8640   -2.1860 hc        1 MOL      0.098561
     35 H15        14.5570   -2.5650   -0.9900 hc        1 MOL      0.098561
     36 H16        15.8900   -1.5470   -2.4790 hx        1 MOL      0.086354
     37 H17        15.1580   -2.0320   -3.8940 hx        1 MOL      0.086354
     38 H18        16.6470   -3.9890   -2.2450 hn        1 MOL      0.260082
     39 H19        15.8180   -4.2900   -3.6370 hn        1 MOL      0.260082
     40 H20        17.2110   -3.3350   -3.5620 hn        1 MOL      0.260082
     41 N4          8.8120    0.1170   -0.9210 n         1 MOL     -0.453209
     42 C13         7.5030    0.0260   -0.2220 c3        1 MOL      0.664982
     43 C14         6.3290   -0.2590   -1.2000 c         1 MOL      0.219099
     44 O6          5.7840    0.6780   -1.7440 o         1 MOL     -0.522191
     45 C15         7.3300    1.2830    0.5460 c3        1 MOL     -0.293591
     46 C16         6.0290    1.2640    1.4800 c         1 MOL      0.718800
     47 O7          5.1370    0.3860    1.2650 o         1 MOL     -0.705178
     48 O8          5.8720    2.1170    2.3140 o         1 MOL     -0.705178
     49 H21         9.0380    0.9480   -1.4570 hn        1 MOL      0.213951
     50 H22         7.4800   -0.8090    0.4770 h1        1 MOL     -0.041713
     51 H23         7.2870    2.1940   -0.0550 hc        1 MOL      0.090593
     52 H24         8.2210    1.3800    1.1660 hc        1 MOL      0.090593
     53 N5          5.8400   -1.4820   -1.3250 n         1 MOL     -0.269057
     54 C17         6.3910   -2.8170   -0.8760 c3        1 MOL     -0.089478
     55 C18         6.0260   -3.3650    0.4480 c         1 MOL      0.575899
     56 O9          6.2730   -4.5840    0.5610 o         1 MOL     -0.557866
     57 H25         4.9980   -1.5280   -1.8780 hn        1 MOL      0.234537
     58 H26         7.4780   -2.7890   -0.9800 h1        1 MOL      0.052918
     59 H27         6.0110   -3.5400   -1.5970 h1        1 MOL      0.052918
     60 N6          5.2870   -2.6040    1.3320 n         1 MOL     -0.156700
     61 C19         4.6740   -3.0180    2.5580 c3        1 MOL     -0.227280
     62 C20         3.2260   -2.5820    2.7750 c         1 MOL      0.427921
     63 O10         2.8580   -1.3670    2.6810 o         1 MOL     -0.615885
     64 C21         5.5520   -2.7940    3.8490 c3        1 MOL     -0.120174
     65 C22         5.9820   -1.3350    4.0320 c         1 MOL      0.580842
     66 O11         5.1450   -0.4460    4.3030 o         1 MOL     -0.647127
     67 O12         7.2180   -1.0720    3.9110 o         1 MOL     -0.647127
     68 H28         5.2470   -1.6320    1.0800 hn        1 MOL      0.150780
     69 H29         4.6070   -4.1030    2.4950 h1        1 MOL      0.069548
     70 H30         6.4280   -3.4450    3.7860 hc        1 MOL      0.062262
     71 H31         5.0100   -3.1360    4.7340 hc        1 MOL      0.062262
     72 N7          2.3570   -3.5620    2.9440 n         1 MOL     -0.200715
     73 C23         0.8990   -3.4960    3.1970 c3        1 MOL     -0.309278
     74 C24         0.0400   -2.8360    2.0900 c         1 MOL      0.549888
     75 O13        -1.2010   -2.7620    2.2550 o         1 MOL     -0.530676
     76 H32         2.8100   -4.4660    2.9080 hn        1 MOL      0.269825
     77 H33         0.7530   -2.9060    4.1050 h1        1 MOL      0.146258
     78 H34         0.5780   -4.5110    3.4330 h1        1 MOL      0.146258
     79 N8          0.7670   -2.3640    1.0380 n         1 MOL     -0.269766
     80 C25         0.1900   -1.9860   -0.2490 c3        1 MOL      0.054575
     81 C26        -0.7920   -0.7600   -0.1350 c         1 MOL      0.428396
     82 O14        -0.9240   -0.0330    0.8710 o         1 MOL     -0.506141
     83 C27         1.3530   -1.6990   -1.2150 c3        1 MOL      0.129805
     84 C28         2.2460   -0.4870   -0.8030 c3        1 MOL     -0.142877
     85 O15         2.1900   -2.8320   -1.3040 oh        1 MOL     -0.637365
     86 H35         1.7750   -2.3000    1.0820 hn        1 MOL      0.231605
     87 H36        -0.4090   -2.8070   -0.6470 h1        1 MOL      0.078593
     88 H37         1.0310   -1.4630   -2.2300 h1        1 MOL      0.026847
     89 H38         2.7630   -2.7380   -2.0660 ho        1 MOL      0.443841
     90 H39         1.6470    0.4130   -0.6290 hc        1 MOL      0.040116
     91 H40         2.6360   -0.7550    0.1780 hc        1 MOL      0.040116
     92 H41         2.9920   -0.2480   -1.5580 hc        1 MOL      0.040116
     93 N9         -1.5310   -0.5560   -1.2700 n         1 MOL     -0.375308
     94 C29        -2.2820    0.6450   -1.5990 c3        1 MOL     -0.053044
     95 C30        -3.5870    0.7250   -0.8800 c         1 MOL      0.435763
     96 O16        -4.0570    1.7820   -0.4820 o         1 MOL     -0.504682
     97 C31        -2.3470    0.8190   -3.1720 c3        1 MOL      0.129443
     98 C32        -0.9000    0.8090   -3.7400 c3        1 MOL     -0.099910
     99 C33        -3.0250    2.1610   -3.5800 c3        1 MOL     -0.258921
    100 C34        -0.7360    1.1250   -5.2880 c3        1 MOL     -0.155599
    101 H42        -1.4890   -1.2730   -1.9810 hn        1 MOL      0.264620
    102 H43        -1.6520    1.4820   -1.3020 h1        1 MOL      0.086817
    103 H44        -2.9230    0.0230   -3.6350 hc        1 MOL      0.028632
    104 H45        -0.5490   -0.2030   -3.5540 hc        1 MOL      0.048856
    105 H46        -0.2040    1.4800   -3.2530 hc        1 MOL      0.048856
    106 H47        -2.4530    2.9950   -3.1710 hc        1 MOL      0.080749
    107 H48        -3.0610    2.2650   -4.6630 hc        1 MOL      0.080749
    108 H49        -4.0600    2.3390   -3.2680 hc        1 MOL      0.080749
    109 H50         0.3160    0.9340   -5.5400 hc        1 MOL      0.050456
    110 H51        -1.4000    0.4440   -5.8140 hc        1 MOL      0.050456
    111 H52        -1.0170    2.1330   -5.5840 hc        1 MOL      0.050456
    112 N10        -4.1580   -0.4590   -0.6980 n         1 MOL     -0.343398
    113 C35        -5.3770   -0.8010    0.0340 c3        1 MOL      0.053384
    114 C36        -6.2050   -1.8350   -0.8100 c         1 MOL      0.576749
    115 O17        -5.6040   -2.5450   -1.6060 o         1 MOL     -0.538532
    116 C37        -5.0880   -1.3380    1.4140 c3        1 MOL      0.398818
    117 C38        -4.5180   -0.2240    2.3180 c3        1 MOL     -0.324649
    118 O18        -6.1880   -1.8350    2.1000 oh        1 MOL     -0.639643
    119 H53        -3.6910   -1.1920   -1.2040 hn        1 MOL      0.198374
    120 H54        -6.0510    0.0510    0.0930 h1        1 MOL      0.063628
    121 H55        -4.3690   -2.1480    1.2080 h1        1 MOL     -0.029461
    122 H56        -5.7860   -2.1000    2.9310 ho        1 MOL      0.399978
    123 H57        -3.6030    0.2040    1.8990 hc        1 MOL      0.088547
    124 H58        -5.2130    0.6080    2.3130 hc        1 MOL      0.088547
    125 H59        -4.3130   -0.5790    3.3320 hc        1 MOL      0.088547
    126 N11        -7.5270   -1.8500   -0.7130 n         1 MOL     -0.486934
    127 C39        -8.4860   -2.6600   -1.4630 c3        1 MOL     -0.068633
    128 C40        -9.8690   -1.9600   -1.5880 c         1 MOL      0.642779
    129 O19       -10.4180   -2.0850   -2.6650 o         1 MOL     -0.574392
    130 C41        -8.6150   -4.0940   -0.8310 c3        1 MOL      0.239098
    131 C42        -9.8210   -4.9460   -1.2200 c3        1 MOL     -0.246943
    132 O20        -8.7140   -3.9580    0.5930 oh        1 MOL     -0.615218
    133 H60        -7.9160   -1.1890   -0.0480 hn        1 MOL      0.262564
    134 H61        -8.0700   -2.7280   -2.4620 h1        1 MOL      0.124875
    135 H62        -7.7050   -4.6360   -1.0990 h1        1 MOL      0.064134
    136 H63        -8.1130   -4.5540    1.0550 ho        1 MOL      0.410868
    137 H64        -9.7480   -5.9870   -0.9110 hc        1 MOL      0.062647
    138 H65       -10.7280   -4.5340   -0.7560 hc        1 MOL      0.062647
    139 H66       -10.0390   -4.9150   -2.2880 hc        1 MOL      0.062647
    140 N12       -10.4090   -1.3480   -0.5720 n         1 MOL     -0.497152
    141 C43       -11.8390   -0.8560   -0.4910 c3        1 MOL     -0.051194
    142 C44       -12.0160    0.3840    0.3620 c         1 MOL      0.710563
    143 O21       -11.8420    0.3230    1.5700 o         1 MOL     -0.546499
    144 C45       -12.8310   -1.9720   -0.2880 c3        1 MOL     -0.131401
    145 C46       -14.2620   -1.6410   -0.7460 c3        1 MOL     -0.139393
    146 C47       -15.2520   -2.8570   -0.7870 c3        1 MOL      0.014611
    147 C48       -14.8950   -3.7580   -1.9280 c3        1 MOL      0.037375
    148 N13       -15.6110   -5.0350   -1.7920 n4        1 MOL     -0.285689
    149 H67        -9.8780   -1.2930    0.2910 hn        1 MOL      0.346303
    150 H68       -12.1060   -0.5460   -1.5080 h1        1 MOL      0.106724
    151 H69       -12.8210   -2.2560    0.7690 hc        1 MOL      0.080668
    152 H70       -12.4500   -2.8030   -0.8660 hc        1 MOL      0.080668
    153 H71       -14.2490   -1.3040   -1.7860 hc        1 MOL      0.075913
    154 H72       -14.6460   -0.8770   -0.0750 hc        1 MOL      0.075913
    155 H73       -16.2670   -2.4910   -0.9790 hc        1 MOL      0.036285
    156 H74       -15.1960   -3.4130    0.1470 hc        1 MOL      0.036285
    157 H75       -13.8480   -4.0550   -1.8600 hx        1 MOL      0.084210
    158 H76       -15.1870   -3.3280   -2.8860 hx        1 MOL      0.084210
    159 H77       -15.3670   -5.4770   -0.9170 hn        1 MOL      0.247683
    160 H78       -16.6130   -4.9090   -1.8060 hn        1 MOL      0.247683
    161 H79       -15.3730   -5.7300   -2.4910 hn        1 MOL      0.247683
    162 N14       -12.2170    1.5300   -0.2800 n         1 MOL     -0.728345
    163 C49       -12.5010    2.8690    0.3170 c3        1 MOL      0.404123
    164 C50       -11.3400    3.6730    1.0320 c         1 MOL      0.378718
    165 O22       -11.4860    4.1380    2.1290 o         1 MOL     -0.521401
    166 C51       -13.4420    3.8080   -0.5500 c3        1 MOL     -0.033514
    167 C52       -13.8860    5.0600    0.2230 c3        1 MOL     -0.157763
    168 C53       -15.0430    5.7980   -0.4480 c         1 MOL      0.669652
    169 O23       -16.2000    5.6670    0.0300 o         1 MOL     -0.644111
    170 O24       -14.7690    6.5320   -1.4640 o         1 MOL     -0.644111
    171 H80       -12.3990    1.4860   -1.2700 hn        1 MOL      0.296254
    172 H81       -13.0830    2.5980    1.2020 h1        1 MOL      0.024144
    173 H82       -14.3750    3.2520   -0.5630 hc        1 MOL      0.004992
    174 H83       -13.0970    3.9560   -1.5750 hc        1 MOL      0.004992
    175 H84       -13.0180    5.7090    0.3560 hc        1 MOL      0.036446
    176 H85       -14.1030    4.6980    1.2270 hc        1 MOL      0.036446
    177 N15       -10.2220    4.0060    0.3960 n         1 MOL     -0.367665
    178 C54        -9.9440    3.9040   -1.0760 c3        1 MOL     -0.115334
    179 H86       -10.6430    3.2020   -1.5290 h1        1 MOL      0.078444
    180 H87       -10.0640    4.8850   -1.5370 h1        1 MOL      0.078444
    181 H88        -8.9240    3.5520   -1.2310 h1        1 MOL      0.078444
    182 H89        -9.6210    4.6290    0.9240 hn        1 MOL      0.303657
    183 Ca1         3.4800    1.1620    3.0780 Ca        1 MOL      1.751043
    184 O25         2.3510    3.9030    4.1110 oh        1 MOL     -0.826628
    185 H90         2.5120    4.6330    3.5150 ho        1 MOL      0.415540
    186 H91         1.4220    3.9430    4.2900 ho        1 MOL      0.415540
    187 O26         1.9080    0.1340    4.8230 oh        1 MOL     -0.826628
    188 H92         2.3560   -0.5360    5.3350 ho        1 MOL      0.415540
    189 H93         1.0650   -0.2690    4.5850 ho        1 MOL      0.415540
    190 O27         4.1910    2.4390    5.2890 oh        1 MOL     -0.826628
    191 H94         4.9430    3.0130    5.4350 ho        1 MOL      0.415540
    192 H95         3.4550    3.0360    5.1700 ho        1 MOL      0.415540
    193 O28         3.2770    3.1010    0.9030 oh        1 MOL     -0.826628
    194 H96         2.9340    3.9940    1.0090 ho        1 MOL      0.415540
    195 H97         3.0400    2.8540    0.0100 ho        1 MOL      0.415540
    196 O29         1.0310    1.6730    1.7970 oh        1 MOL     -0.826628
    197 H98         0.3390    1.0120    1.8780 ho        1 MOL      0.415540
    198 H99         0.7370    2.2390    1.0790 ho        1 MOL      0.415540
@<TRIPOS>BOND
     1    1    2 1   
     2    1    4 1   
     3    1    5 1   
     4    1    6 1   
     5    2    3 2   
     6    2    7 1   
     7    7    8 1   
     8    7   15 1   
     9    8    9 1   
    10    8   11 1   
    11    8   16 1   
    12    9   10 2   
    13    9   19 1   
    14   11   12 1   
    15   11   17 1   
    16   11   18 1   
    17   12   13 1   
    18   12   14 1   
    19   19   20 1   
    20   19   28 1   
    21   20   21 1   
    22   20   23 1   
    23   20   29 1   
    24   21   22 2   
    25   21   41 1   
    26   23   24 1   
    27   23   30 1   
    28   23   31 1   
    29   24   25 1   
    30   24   32 1   
    31   24   33 1   
    32   25   26 1   
    33   25   34 1   
    34   25   35 1   
    35   26   27 1   
    36   26   36 1   
    37   26   37 1   
    38   27   38 1   
    39   27   39 1   
    40   27   40 1   
    41   41   42 1   
    42   41   49 1   
    43   42   43 1   
    44   42   45 1   
    45   42   50 1   
    46   43   44 2   
    47   43   53 1   
    48   45   46 1   
    49   45   51 1   
    50   45   52 1   
    51   46   47 1   
    52   46   48 1   
    53   53   54 1   
    54   53   57 1   
    55   54   55 1   
    56   54   58 1   
    57   54   59 1   
    58   55   56 2   
    59   55   60 1   
    60   60   61 1   
    61   60   68 1   
    62   61   62 1   
    63   61   64 1   
    64   61   69 1   
    65   62   63 2   
    66   62   72 1   
    67   64   65 1   
    68   64   70 1   
    69   64   71 1   
    70   65   66 1   
    71   65   67 1   
    72   72   73 1   
    73   72   76 1   
    74   73   74 1   
    75   73   77 1   
    76   73   78 1   
    77   74   75 2   
    78   74   79 1   
    79   79   80 1   
    80   79   86 1   
    81   80   81 1   
    82   80   83 1   
    83   80   87 1   
    84   81   82 2   
    85   81   93 1   
    86   83   84 1   
    87   83   85 1   
    88   83   88 1   
    89   84   90 1   
    90   84   91 1   
    91   84   92 1   
    92   85   89 1   
    93   93   94 1   
    94   93  101 1   
    95   94   95 1   
    96   94   97 1   
    97   94  102 1   
    98   95   96 2   
    99   95  112 1   
   100   97   98 1   
   101   97   99 1   
   102   97  103 1   
   103   98  100 1   
   104   98  104 1   
   105   98  105 1   
   106   99  106 1   
   107   99  107 1   
   108   99  108 1   
   109  100  109 1   
   110  100  110 1   
   111  100  111 1   
   112  112  113 1   
   113  112  119 1   
   114  113  114 1   
   115  113  116 1   
   116  113  120 1   
   117  114  115 2   
   118  114  126 1   
   119  116  117 1   
   120  116  118 1   
   121  116  121 1   
   122  117  123 1   
   123  117  124 1   
   124  117  125 1   
   125  118  122 1   
   126  126  127 1   
   127  126  133 1   
   128  127  128 1   
   129  127  130 1   
   130  127  134 1   
   131  128  129 2   
   132  128  140 1   
   133  130  131 1   
   134  130  132 1   
   135  130  135 1   
   136  131  137 1   
   137  131  138 1   
   138  131  139 1   
   139  132  136 1   
   140  140  141 1   
   141  140  149 1   
   142  141  142 1   
   143  141  144 1   
   144  141  150 1   
   145  142  143 2   
   146  142  162 1   
   147  144  145 1   
   148  144  151 1   
   149  144  152 1   
   150  145  146 1   
   151  145  153 1   
   152  145  154 1   
   153  146  147 1   
   154  146  155 1   
   155  146  156 1   
   156  147  148 1   
   157  147  157 1   
   158  147  158 1   
   159  148  159 1   
   160  148  160 1   
   161  148  161 1   
   162  162  163 1   
   163  162  171 1   
   164  163  164 1   
   165  163  166 1   
   166  163  172 1   
   167  164  165 2   
   168  164  177 1   
   169  166  167 1   
   170  166  173 1   
   171  166  174 1   
   172  167  168 1   
   173  167  175 1   
   174  167  176 1   
   175  168  169 1   
   176  168  170 1   
   177  177  178 1   
   178  177  182 1   
   179  178  179 1   
   180  178  180 1   
   181  178  181 1   
   182  184  185 1   
   183  184  186 1   
   184  187  188 1   
   185  187  189 1   
   186  190  191 1   
   187  190  192 1   
   188  193  194 1   
   189  193  195 1   
   190  196  197 1   
   191  196  198 1   
@<TRIPOS>SUBSTRUCTURE
     1 MOL         1 TEMP              0 ****  ****    0 ROOT
