@<TRIPOS>MOLECULE
MOL
  178   175     1     0     0
SMALL
resp


@<TRIPOS>ATOM
      1 C1          4.6580   -3.5660    3.4380 c3        1 MOL     -0.406690
      2 C2          5.5630   -2.4230    2.8510 c         1 MOL      0.714698
      3 O1          5.3200   -1.7670    1.8460 o         1 MOL     -0.582429
      4 H1          5.2850   -4.4020    3.7470 hc        1 MOL      0.107103
      5 H2          4.1060   -3.1880    4.2990 hc        1 MOL      0.107103
      6 H3          3.9560   -3.9020    2.6750 hc        1 MOL      0.107103
      7 N1          6.7380   -2.3060    3.4100 n         1 MOL     -0.613290
      8 C3          7.6370   -1.1890    3.0920 c3        1 MOL      0.314103
      9 C4          8.4650   -1.5590    1.7900 c         1 MOL      0.512369
     10 O2          9.3560   -2.4440    1.8080 o         1 MOL     -0.575932
     11 C5          8.4350   -0.7400    4.2920 c3        1 MOL     -0.275359
     12 C6          8.9590    0.6840    4.2280 c         1 MOL      0.775060
     13 O3          8.4920    1.4140    3.3200 o         1 MOL     -0.742235
     14 O4          9.7240    1.0870    5.1110 o         1 MOL     -0.742235
     15 H4          6.8980   -2.8890    4.2230 hn        1 MOL      0.302454
     16 H5          7.0240   -0.3360    2.8100 h1        1 MOL      0.021734
     17 H6          9.3140   -1.3930    4.3650 hc        1 MOL      0.029494
     18 H7          7.7420   -0.8720    5.1170 hc        1 MOL      0.029494
     19 N2          8.1850   -0.8380    0.7440 n         1 MOL     -0.587766
     20 C7          8.6250   -1.1170   -0.6670 c3        1 MOL      0.589478
     21 C8          7.5170   -1.6310   -1.4910 c         1 MOL      0.217650
     22 O5          7.6870   -1.8940   -2.6640 o         1 MOL     -0.520581
     23 C9          9.3720    0.0590   -1.3620 c3        1 MOL     -0.455603
     24 H8          7.5670   -0.0630    0.9200 hn        1 MOL      0.270409
     25 H9          9.3740   -1.9110   -0.6360 h1        1 MOL     -0.004020
     26 H10         8.7080    0.9200   -1.3020 hc        1 MOL      0.111774
     27 H11        10.2930    0.1210   -0.7710 hc        1 MOL      0.111774
     28 H12         9.6160   -0.2290   -2.3810 hc        1 MOL      0.111774
     29 N3          6.2460   -1.7710   -0.9720 n         1 MOL     -0.199425
     30 C10         4.9630   -2.1470   -1.6770 c3        1 MOL      0.067825
     31 C11         4.6000   -1.2220   -2.8830 c         1 MOL      0.413065
     32 O6          3.8120   -1.6060   -3.8120 o         1 MOL     -0.474359
     33 C12         4.9630   -3.6350   -2.0640 c3        1 MOL     -0.135624
     34 C13         3.5610   -4.1780   -2.4500 c         1 MOL      0.701220
     35 O7          3.4860   -5.1930   -3.1860 o         1 MOL     -0.727225
     36 O8          2.5200   -3.6290   -1.9630 o         1 MOL     -0.727225
     37 H13         6.1570   -1.6940    0.0270 hn        1 MOL      0.156696
     38 H14         4.2220   -1.9800   -0.8930 h1        1 MOL      0.020693
     39 H15         5.3170   -4.3160   -1.2860 hc        1 MOL      0.053436
     40 H16         5.6680   -3.8070   -2.8700 hc        1 MOL      0.053436
     41 N4          5.0760    0.0130   -2.8380 n         1 MOL     -0.079347
     42 C14         5.1640    0.8650   -3.9720 c3        1 MOL     -0.351602
     43 C15         3.8640    1.7120   -4.1610 c         1 MOL      0.669985
     44 O9          3.8110    2.6750   -4.9800 o         1 MOL     -0.611644
     45 H17         5.5350    0.2100   -1.9680 hn        1 MOL      0.168874
     46 H18         5.3750    0.3670   -4.9260 h1        1 MOL      0.147024
     47 H19         5.9800    1.5390   -3.7000 h1        1 MOL      0.147024
     48 N5          2.7820    1.5200   -3.3510 n         1 MOL     -0.464230
     49 C16         1.5480    2.2850   -3.5500 c3        1 MOL     -0.076750
     50 C17         1.5470    3.5770   -2.7170 c         1 MOL      0.606482
     51 O10         2.1020    3.5750   -1.6400 o         1 MOL     -0.523604
     52 C18         0.3670    1.3270   -3.2760 c3        1 MOL     -0.320896
     53 C19        -0.9440    1.9640   -3.6660 c         1 MOL      0.622911
     54 N6         -1.6150    2.5690   -2.7200 n         1 MOL     -0.785217
     55 O11        -1.4460    1.8250   -4.7530 o         1 MOL     -0.581228
     56 H20         2.7880    0.6670   -2.8190 hn        1 MOL      0.248965
     57 H21         1.4890    2.5070   -4.6150 h1        1 MOL      0.093692
     58 H22         0.3520    1.0270   -2.2280 hc        1 MOL      0.198630
     59 H23         0.4400    0.4300   -3.8900 hc        1 MOL      0.198630
     60 H24        -1.3260    2.6070   -1.7490 hn        1 MOL      0.356797
     61 H25        -2.5740    2.7970   -2.9510 hn        1 MOL      0.356797
     62 N7          1.0760    4.6530   -3.3780 n         1 MOL     -0.258484
     63 C20         1.0840    5.9500   -2.7520 c3        1 MOL     -0.275495
     64 C21        -0.0610    6.1820   -1.7040 c         1 MOL      0.645490
     65 O12        -1.2460    5.9850   -2.0050 o         1 MOL     -0.544356
     66 H26         0.8100    4.4350   -4.3260 hn        1 MOL      0.266837
     67 H27         1.0620    6.7250   -3.5220 h1        1 MOL      0.112640
     68 H28         2.0510    5.9660   -2.2420 h1        1 MOL      0.112640
     69 N8          0.3100    6.6010   -0.5190 n         1 MOL     -0.495820
     70 C22        -0.6310    7.2210    0.4790 c3        1 MOL     -0.148598
     71 C23        -1.1700    6.2250    1.4980 c         1 MOL      0.423752
     72 O13        -1.8120    6.5980    2.4820 o         1 MOL     -0.541045
     73 C24        -0.0420    8.5040    1.1000 c3        1 MOL      0.526246
     74 C25         1.1050    8.2730    2.1560 c3        1 MOL     -0.368033
     75 O14         0.5780    9.3210    0.0690 oh        1 MOL     -0.661483
     76 H29         1.3200    6.6700   -0.4350 hn        1 MOL      0.287152
     77 H30        -1.5530    7.5080   -0.0290 h1        1 MOL      0.138799
     78 H31        -0.8540    8.9990    1.6180 h1        1 MOL      0.009449
     79 H32         1.4120    8.8850   -0.1280 ho        1 MOL      0.387322
     80 H33         1.6150    7.3190    2.0540 hc        1 MOL      0.087162
     81 H34         1.8670    9.0510    2.0960 hc        1 MOL      0.087162
     82 H35         0.6250    8.2690    3.1330 hc        1 MOL      0.087162
     83 N9         -0.7210    4.9470    1.3710 n         1 MOL     -0.112131
     84 C26        -1.0280    3.8100    2.1610 c3        1 MOL     -0.094324
     85 C27        -1.0380    2.6160    1.2120 c         1 MOL      0.470875
     86 O15        -0.3490    2.6590    0.2230 o         1 MOL     -0.455192
     87 C28        -0.0600    3.6050    3.3430 c3        1 MOL      0.306877
     88 C29         1.4650    3.5530    2.9440 c3        1 MOL      0.034247
     89 C30        -0.3460    4.6870    4.4780 c3        1 MOL     -0.486679
     90 C31         2.2840    3.0000    4.0100 c3        1 MOL     -0.301542
     91 H36        -0.1690    4.8020    0.5470 hn        1 MOL      0.101614
     92 H37        -2.0400    3.9410    2.5720 h1        1 MOL      0.066047
     93 H38        -0.3090    2.6320    3.7710 hc        1 MOL     -0.057794
     94 H39         1.7670    4.5850    2.7610 hc        1 MOL      0.028390
     95 H40         1.5550    2.9960    2.0170 hc        1 MOL      0.028390
     96 H41         0.3060    4.4410    5.3150 hc        1 MOL      0.117693
     97 H42        -0.2640    5.7000    4.0990 hc        1 MOL      0.117693
     98 H43        -1.3820    4.5130    4.7840 hc        1 MOL      0.117693
     99 H44         3.3420    2.9080    3.7710 hc        1 MOL      0.080345
    100 H45         2.1620    3.4320    5.0130 hc        1 MOL      0.080345
    101 H46         2.0140    1.9430    4.0260 hc        1 MOL      0.080345
    102 N10        -1.7290    1.5300    1.4110 n         1 MOL     -0.620587
    103 C32        -1.7340    0.3410    0.5600 c3        1 MOL      0.458934
    104 C33        -3.1770   -0.0960    0.2410 c         1 MOL      0.542073
    105 O16        -3.4940   -1.2640    0.0270 o         1 MOL     -0.448101
    106 C34        -0.8430   -0.6500    1.2520 c3        1 MOL     -0.403007
    107 C35        -0.5860   -1.8710    0.3620 c         1 MOL      0.623995
    108 O17        -0.6030   -1.6960   -0.8510 o         1 MOL     -0.690380
    109 O18        -0.2590   -2.9700    0.8560 o         1 MOL     -0.690380
    110 H47        -2.3140    1.6100    2.2300 hn        1 MOL      0.294484
    111 H48        -1.2900    0.5740   -0.4140 h1        1 MOL     -0.026354
    112 H49        -1.2940   -1.0940    2.1470 hc        1 MOL      0.133267
    113 H50         0.1540   -0.2650    1.4570 hc        1 MOL      0.133267
    114 N11        -4.1100    0.8540    0.1680 n         1 MOL     -0.569556
    115 C36        -5.4780    0.5620   -0.2940 c3        1 MOL      0.222490
    116 C37        -6.1430   -0.5630    0.5170 c         1 MOL      0.054303
    117 O19        -6.0850   -0.4730    1.7520 o         1 MOL     -0.367504
    118 C38        -6.2330    1.9090   -0.2190 c3        1 MOL     -0.224632
    119 C39        -7.7010    1.8510   -0.6250 ca        1 MOL      0.056138
    120 C40        -8.0400    2.0500   -2.0050 ca        1 MOL     -0.127661
    121 C41        -8.6230    1.4410    0.3100 ca        1 MOL     -0.127661
    122 C42        -9.4080    1.9670   -2.3470 ca        1 MOL     -0.094269
    123 C43        -9.9620    1.3540   -0.0750 ca        1 MOL     -0.094269
    124 C44       -10.3510    1.5690   -1.4330 ca        1 MOL     -0.168051
    125 H51        -3.8760    1.7750    0.5260 hn        1 MOL      0.285575
    126 H52        -5.3800    0.1970   -1.3120 h1        1 MOL      0.076634
    127 H53        -5.7080    2.7240   -0.7250 hc        1 MOL      0.101735
    128 H54        -6.2450    2.0940    0.8560 hc        1 MOL      0.101735
    129 H55        -7.3640    2.4280   -2.7580 ha        1 MOL      0.128477
    130 H56        -8.3790    1.3580    1.3620 ha        1 MOL      0.128477
    131 H57        -9.6680    2.2170   -3.3610 ha        1 MOL      0.105787
    132 H58       -10.7000    1.0030    0.6260 ha        1 MOL      0.105787
    133 H59       -11.3510    1.3440   -1.7470 ha        1 MOL      0.121067
    134 N12        -6.9430   -1.4700   -0.0600 n         1 MOL      0.018759
    135 C45        -7.8090   -2.4030    0.7150 c3        1 MOL      0.065441
    136 C46        -7.1110   -3.3860    1.7180 c         1 MOL      0.304465
    137 O20        -7.6120   -3.8790    2.7400 o         1 MOL     -0.517320
    138 C47        -8.6030   -3.1920   -0.3290 c3        1 MOL     -0.037177
    139 C48        -8.7510   -2.1060   -1.3690 c3        1 MOL      0.079858
    140 C49        -7.3620   -1.4810   -1.5010 c3        1 MOL     -0.137432
    141 H60        -8.4830   -1.8030    1.3210 h1        1 MOL      0.061625
    142 H61        -7.9760   -4.0210   -0.6840 hc        1 MOL      0.029268
    143 H62        -9.5730   -3.5120    0.0170 hc        1 MOL      0.029268
    144 H63        -9.1720   -2.5100   -2.2910 hc        1 MOL     -0.002898
    145 H64        -9.4610   -1.3550   -1.0340 hc        1 MOL     -0.002898
    146 H65        -6.7750   -2.2680   -1.9800 h1        1 MOL      0.072102
    147 H66        -7.4000   -0.5060   -1.9790 h1        1 MOL      0.072102
    148 N13        -5.7940   -3.5800    1.5230 n         1 MOL     -0.161561
    149 C50        -4.8220   -4.2490    2.3780 c3        1 MOL     -0.243018
    150 C51        -4.4050   -3.4790    3.6640 c         1 MOL      0.455967
    151 O21        -3.6590   -3.9460    4.5710 o         1 MOL     -0.534211
    152 C52        -3.5490   -4.4580    1.5350 c3        1 MOL      0.161643
    153 C53        -3.7680   -5.3780    0.3400 c3        1 MOL     -0.220557
    154 C54        -2.5160   -5.4370   -0.5170 c         1 MOL      0.691318
    155 O22        -2.3610   -4.6450   -1.4690 o         1 MOL     -0.746525
    156 O23        -1.5050   -6.1660   -0.3210 o         1 MOL     -0.746525
    157 H67        -5.4440   -3.1190    0.6960 hn        1 MOL      0.246560
    158 H68        -5.2750   -5.1700    2.7410 h1        1 MOL      0.153258
    159 H69        -2.7550   -4.8460    2.1760 hc        1 MOL      0.015428
    160 H70        -3.2030   -3.4810    1.2180 hc        1 MOL      0.015428
    161 H71        -4.5560   -4.9110   -0.2540 hc        1 MOL      0.030061
    162 H72        -3.9460   -6.3730    0.7450 hc        1 MOL      0.030061
    163 N14        -4.8580   -2.1940    3.8300 n         1 MOL     -0.159465
    164 C55        -4.3350   -1.2270    4.8390 c3        1 MOL     -0.205812
    165 H73        -4.5700   -0.2100    4.5240 h1        1 MOL      0.082708
    166 H74        -4.7980   -1.4230    5.8060 h1        1 MOL      0.082708
    167 H75        -3.2540   -1.3390    4.9250 h1        1 MOL      0.082708
    168 H76        -5.3990   -1.7380    3.1100 hn        1 MOL      0.145383
    169 Ca1         0.2310   -4.2710   -1.1990 Ca        1 MOL      1.735593
    170 O24         1.5480   -6.0290    0.4290 oh        1 MOL     -0.864273
    171 H77         1.9890   -6.0810    1.2810 ho        1 MOL      0.412010
    172 H78         1.6920   -6.8850    0.0370 ho        1 MOL      0.412010
    173 O25         1.0220   -6.2160   -2.8340 oh        1 MOL     -0.864273
    174 H79         1.8370   -5.8410   -3.1520 ho        1 MOL      0.412010
    175 H80         1.0490   -7.1320   -3.1310 ho        1 MOL      0.412010
    176 O26         0.0020   -3.2510   -3.6740 oh        1 MOL     -0.864273
    177 H81        -0.4030   -3.9480   -4.2070 ho        1 MOL      0.412010
    178 H82         0.5970   -2.8050   -4.2770 ho        1 MOL      0.412010
@<TRIPOS>BOND
     1    1    2 1   
     2    1    4 1   
     3    1    5 1   
     4    1    6 1   
     5    2    3 2   
     6    2    7 1   
     7    7    8 1   
     8    7   15 1   
     9    8    9 1   
    10    8   11 1   
    11    8   16 1   
    12    9   10 2   
    13    9   19 1   
    14   11   12 1   
    15   11   17 1   
    16   11   18 1   
    17   12   13 1   
    18   12   14 1   
    19   19   20 1   
    20   19   24 1   
    21   20   21 1   
    22   20   23 1   
    23   20   25 1   
    24   21   22 2   
    25   21   29 1   
    26   23   26 1   
    27   23   27 1   
    28   23   28 1   
    29   29   30 1   
    30   29   37 1   
    31   30   31 1   
    32   30   33 1   
    33   30   38 1   
    34   31   32 2   
    35   31   41 1   
    36   33   34 1   
    37   33   39 1   
    38   33   40 1   
    39   34   35 1   
    40   34   36 1   
    41   41   42 1   
    42   41   45 1   
    43   42   43 1   
    44   42   46 1   
    45   42   47 1   
    46   43   44 2   
    47   43   48 1   
    48   48   49 1   
    49   48   56 1   
    50   49   50 1   
    51   49   52 1   
    52   49   57 1   
    53   50   51 2   
    54   50   62 1   
    55   52   53 1   
    56   52   58 1   
    57   52   59 1   
    58   53   54 1   
    59   53   55 2   
    60   54   60 1   
    61   54   61 1   
    62   62   63 1   
    63   62   66 1   
    64   63   64 1   
    65   63   67 1   
    66   63   68 1   
    67   64   65 2   
    68   64   69 1   
    69   69   70 1   
    70   69   76 1   
    71   70   71 1   
    72   70   73 1   
    73   70   77 1   
    74   71   72 2   
    75   71   83 1   
    76   73   74 1   
    77   73   75 1   
    78   73   78 1   
    79   74   80 1   
    80   74   81 1   
    81   74   82 1   
    82   75   79 1   
    83   83   84 1   
    84   83   91 1   
    85   84   85 1   
    86   84   87 1   
    87   84   92 1   
    88   85   86 2   
    89   85  102 1   
    90   87   88 1   
    91   87   89 1   
    92   87   93 1   
    93   88   90 1   
    94   88   94 1   
    95   88   95 1   
    96   89   96 1   
    97   89   97 1   
    98   89   98 1   
    99   90   99 1   
   100   90  100 1   
   101   90  101 1   
   102  102  103 1   
   103  102  110 1   
   104  103  104 1   
   105  103  106 1   
   106  103  111 1   
   107  104  105 2   
   108  104  114 1   
   109  106  107 1   
   110  106  112 1   
   111  106  113 1   
   112  107  108 1   
   113  107  109 1   
   114  114  115 1   
   115  114  125 1   
   116  115  116 1   
   117  115  118 1   
   118  115  126 1   
   119  116  117 2   
   120  116  134 1   
   121  118  119 1   
   122  118  127 1   
   123  118  128 1   
   124  119  120 ar  
   125  119  121 ar  
   126  120  122 ar  
   127  120  129 1   
   128  121  123 ar  
   129  121  130 1   
   130  122  124 ar  
   131  122  131 1   
   132  123  124 ar  
   133  123  132 1   
   134  124  133 1   
   135  134  135 1   
   136  134  140 1   
   137  135  136 1   
   138  135  138 1   
   139  135  141 1   
   140  136  137 2   
   141  136  148 1   
   142  138  139 1   
   143  138  142 1   
   144  138  143 1   
   145  139  140 1   
   146  139  144 1   
   147  139  145 1   
   148  140  146 1   
   149  140  147 1   
   150  148  149 1   
   151  148  157 1   
   152  149  150 1   
   153  149  152 1   
   154  149  158 1   
   155  150  151 2   
   156  150  163 1   
   157  152  153 1   
   158  152  159 1   
   159  152  160 1   
   160  153  154 1   
   161  153  161 1   
   162  153  162 1   
   163  154  155 1   
   164  154  156 1   
   165  163  164 1   
   166  163  168 1   
   167  164  165 1   
   168  164  166 1   
   169  164  167 1   
   170  170  171 1   
   171  170  172 1   
   172  173  174 1   
   173  173  175 1   
   174  176  177 1   
   175  176  178 1   
@<TRIPOS>SUBSTRUCTURE
     1 MOL         1 TEMP              0 ****  ****    0 ROOT
