@<TRIPOS>MOLECULE
MOL
  195   189     1     0     0
SMALL
resp


@<TRIPOS>ATOM
      1 C1          9.5300    7.6770   -0.6950 c3        1 MOL     -0.410178
      2 C2          8.4910    6.5350   -0.6730 c         1 MOL      0.765481
      3 O1          7.2520    6.7760   -0.6810 o         1 MOL     -0.666322
      4 H1          9.4010    8.2670   -1.6020 hc        1 MOL      0.108511
      5 H2          9.3870    8.3160    0.1760 hc        1 MOL      0.108511
      6 H3         10.5340    7.2550   -0.6760 hc        1 MOL      0.108511
      7 N1          8.9280    5.2750   -0.7100 n         1 MOL     -0.714166
      8 C3          8.0330    4.1550   -0.9610 c3        1 MOL      0.509938
      9 C4          7.2250    3.7430    0.2410 c         1 MOL      0.612046
     10 O2          7.7010    3.8490    1.3260 o         1 MOL     -0.556337
     11 C5          8.7930    3.0140   -1.5870 c3        1 MOL     -0.314778
     12 C6          7.8710    2.0350   -2.2880 c         1 MOL      0.758941
     13 O3          8.4070    0.9930   -2.6650 o         1 MOL     -0.708174
     14 O4          6.6610    2.2790   -2.5750 o         1 MOL     -0.708174
     15 H4          9.9310    5.1420   -0.8110 hn        1 MOL      0.321962
     16 H5          7.4010    4.4800   -1.7800 h1        1 MOL     -0.092899
     17 H6          9.2010    2.5640   -0.6800 hc        1 MOL      0.044685
     18 H7          9.4630    3.4260   -2.3330 hc        1 MOL      0.044685
     19 N2          5.9530    3.4070    0.0250 n         1 MOL     -0.470352
     20 C7          4.9250    3.6300    1.0240 c3        1 MOL      0.069440
     21 C8          4.7230    2.5340    2.1210 c         1 MOL      0.483354
     22 O5          4.0190    2.8720    3.0330 o         1 MOL     -0.519822
     23 C9          3.5830    4.0170    0.3650 c3        1 MOL     -0.074430
     24 C10         3.7310    5.2520   -0.6090 c3        1 MOL      0.048141
     25 C11         2.2870    5.7840   -0.9580 c3        1 MOL      0.006619
     26 C12         2.2770    7.0760   -1.7100 c3        1 MOL     -0.107506
     27 N3          2.7560    6.9210   -3.0980 n4        1 MOL     -0.270883
     28 H8          5.6880    3.2730   -0.9450 hn        1 MOL      0.188346
     29 H9          5.1870    4.4790    1.6590 h1        1 MOL      0.071709
     30 H10         2.9530    4.2590    1.2180 hc        1 MOL      0.062282
     31 H11         3.1800    3.1670   -0.1870 hc        1 MOL      0.062282
     32 H12         4.1470    4.8240   -1.5280 hc        1 MOL      0.028768
     33 H13         4.4390    5.9830   -0.2220 hc        1 MOL      0.028768
     34 H14         1.7140    5.8790   -0.0430 hc        1 MOL      0.028461
     35 H15         1.8120    4.9780   -1.5260 hc        1 MOL      0.028461
     36 H16         2.8470    7.8140   -1.1530 hx        1 MOL      0.120220
     37 H17         1.2300    7.3530   -1.8150 hx        1 MOL      0.120220
     38 H18         2.6610    7.8320   -3.5160 hn        1 MOL      0.307516
     39 H19         3.7040    6.5820   -3.1210 hn        1 MOL      0.307516
     40 H20         2.1990    6.2760   -3.6460 hn        1 MOL      0.307516
     41 N4          5.1720    1.2360    2.0350 n         1 MOL     -0.342005
     42 C13         5.8150    0.4880    0.9860 c3        1 MOL      0.004948
     43 C14         6.3490   -0.8630    1.5170 c         1 MOL      0.532162
     44 O6          5.9700   -1.2710    2.6000 o         1 MOL     -0.494964
     45 C15         4.8030    0.2260   -0.1670 c3        1 MOL     -0.364292
     46 C16         3.5710   -0.5290    0.3270 c         1 MOL      0.616040
     47 O7          3.5810   -1.7590    0.3790 o         1 MOL     -0.631994
     48 O8          2.6750    0.1040    0.8770 o         1 MOL     -0.631994
     49 H21         4.8470    0.6800    2.8060 hn        1 MOL      0.230547
     50 H22         6.7040    1.0300    0.6340 h1        1 MOL      0.064457
     51 H23         5.2910   -0.2050   -1.0420 hc        1 MOL      0.066606
     52 H24         4.3960    1.1720   -0.5070 hc        1 MOL      0.066606
     53 N5          7.1630   -1.5750    0.7440 n         1 MOL     -0.294198
     54 C17         7.9640   -2.7390    1.2560 c3        1 MOL     -0.393143
     55 C18         7.0900   -4.0650    1.2560 c         1 MOL      0.498063
     56 O9          7.7130   -5.1480    1.4270 o         1 MOL     -0.520267
     57 H25         7.2920   -1.2380   -0.2070 hn        1 MOL      0.310197
     58 H26         8.3280   -2.5100    2.2590 h1        1 MOL      0.189254
     59 H27         8.7020   -3.0580    0.5200 h1        1 MOL      0.189254
     60 N6          5.7880   -3.9140    1.1960 n         1 MOL     -0.042126
     61 C19         4.8040   -4.8650    0.8140 c3        1 MOL     -0.110526
     62 C20         5.3160   -5.7850   -0.4110 c         1 MOL      0.590034
     63 O10         5.4970   -6.9720   -0.2690 o         1 MOL     -0.537434
     64 C21         4.2660   -5.7140    2.0400 c3        1 MOL      0.073781
     65 C22         3.9400   -4.9000    3.2800 c         1 MOL      0.521274
     66 O11         4.6540   -5.0350    4.3280 o         1 MOL     -0.642296
     67 O12         3.0220   -4.0770    3.2660 o         1 MOL     -0.642296
     68 H28         5.5090   -2.9530    1.0260 hn        1 MOL      0.088125
     69 H29         4.0300   -4.1850    0.4630 h1        1 MOL      0.075668
     70 H30         5.0810   -6.3700    2.3390 hc        1 MOL     -0.016282
     71 H31         3.3890   -6.3050    1.7600 hc        1 MOL     -0.016282
     72 N7          5.6690   -5.2470   -1.5800 n         1 MOL     -0.505805
     73 C23         5.1860   -3.9640   -2.1720 c3        1 MOL     -0.012513
     74 C24         3.7120   -4.1930   -2.5540 c         1 MOL      0.401332
     75 O13         3.3970   -4.9690   -3.4640 o         1 MOL     -0.528573
     76 H32         6.0840   -5.8490   -2.2780 hn        1 MOL      0.328351
     77 H33         5.7420   -3.7320   -3.0810 h1        1 MOL      0.079978
     78 H34         5.2470   -3.1340   -1.4800 h1        1 MOL      0.079978
     79 N8          2.7440   -3.5020   -1.9240 n         1 MOL     -0.320063
     80 C25         1.3270   -3.7440   -2.0340 c3        1 MOL      0.255955
     81 C26         0.5260   -2.4270   -1.6300 c         1 MOL      0.026948
     82 O14         0.6310   -1.9520   -0.4890 o         1 MOL     -0.282631
     83 C27         0.9640   -4.8550   -0.9870 c3        1 MOL      0.330297
     84 C28        -0.5240   -5.1060   -0.9420 c3        1 MOL     -0.606332
     85 O15         1.3990   -4.6390    0.3600 oh        1 MOL     -0.846654
     86 H35         3.0440   -2.8260   -1.2250 hn        1 MOL      0.252662
     87 H36         1.0930   -4.1560   -3.0160 h1        1 MOL      0.026749
     88 H37         1.4100   -5.7670   -1.3720 h1        1 MOL      0.037612
     89 H38         1.3370   -5.5420    0.6680 ho        1 MOL      0.497920
     90 H39        -0.9960   -4.3780   -0.2800 hc        1 MOL      0.166618
     91 H40        -0.8600   -5.0580   -1.9750 hc        1 MOL      0.166618
     92 H41        -0.7820   -6.0980   -0.5750 hc        1 MOL      0.166618
     93 N9         -0.0550   -1.6710   -2.5090 n         1 MOL     -0.236026
     94 C29        -0.5580   -0.3180   -2.2920 c3        1 MOL     -0.010019
     95 C30        -1.8440   -0.1700   -1.4700 c         1 MOL      0.582840
     96 O16        -2.1020   -0.9500   -0.5630 o         1 MOL     -0.541366
     97 C31         0.6310    0.6400   -1.9340 c3        1 MOL      0.249010
     98 C32         1.9520    0.4010   -2.7490 c3        1 MOL     -0.080933
     99 C33         0.2930    2.1640   -2.0570 c3        1 MOL     -0.095259
    100 C34         1.8450    0.6510   -4.2810 c3        1 MOL     -0.388663
    101 H42        -0.1900   -1.9870   -3.4570 hn        1 MOL      0.283924
    102 H43        -0.9110    0.0130   -3.2690 h1        1 MOL     -0.026087
    103 H44         0.8930    0.3660   -0.9130 hc        1 MOL     -0.080590
    104 H45         2.3430   -0.5770   -2.4660 hc        1 MOL      0.101879
    105 H46         2.6030    1.1560   -2.2950 hc        1 MOL      0.101879
    106 H47        -0.0380    2.5310   -3.0270 hc        1 MOL      0.008245
    107 H48        -0.4680    2.4650   -1.3250 hc        1 MOL      0.008245
    108 H49         1.1570    2.7770   -1.8080 hc        1 MOL      0.008245
    109 H50         2.0800    1.6970   -4.4590 hc        1 MOL      0.099496
    110 H51         2.4330   -0.1300   -4.7550 hc        1 MOL      0.099496
    111 H52         0.9470    0.2400   -4.7600 hc        1 MOL      0.099496
    112 N10        -2.5890    0.9290   -1.6840 n         1 MOL     -0.379730
    113 C35        -3.6710    1.3320   -0.7620 c3        1 MOL     -0.213899
    114 C36        -5.1020    0.9550   -1.1540 c         1 MOL      0.617921
    115 O17        -6.0460    1.4870   -0.6810 o         1 MOL     -0.578849
    116 C37        -3.5990    2.8750   -0.4850 c3        1 MOL      0.532474
    117 C38        -3.5040    3.7070   -1.7590 c3        1 MOL     -0.371583
    118 O18        -2.4540    3.2060    0.2230 oh        1 MOL     -0.642199
    119 H53        -2.5680    1.3740   -2.5890 hn        1 MOL      0.241624
    120 H54        -3.4710    0.7980    0.1690 h1        1 MOL      0.132822
    121 H55        -4.4840    3.0660    0.1170 h1        1 MOL     -0.011021
    122 H56        -2.4350    2.7400    1.0620 ho        1 MOL      0.416120
    123 H57        -2.5820    3.7580   -2.3540 hc        1 MOL      0.084390
    124 H58        -4.3290    3.3780   -2.3810 hc        1 MOL      0.084390
    125 H59        -3.7430    4.6970   -1.3700 hc        1 MOL      0.084390
    126 N11        -5.2300    0.0060   -2.0400 n         1 MOL     -0.273425
    127 C39        -6.4950   -0.5130   -2.5900 c3        1 MOL     -0.203190
    128 C40        -7.5120   -0.8280   -1.4620 c         1 MOL      0.621425
    129 O19        -7.2140   -1.6680   -0.6530 o         1 MOL     -0.450625
    130 C41        -6.2400   -1.7960   -3.3890 c3        1 MOL      0.092077
    131 C42        -5.5480   -1.5980   -4.7240 c3        1 MOL     -0.294353
    132 O20        -5.3360   -2.7280   -2.7480 oh        1 MOL     -0.561687
    133 H60        -4.3980   -0.4670   -2.3550 hn        1 MOL      0.264171
    134 H61        -6.9500    0.2460   -3.2290 h1        1 MOL      0.102720
    135 H62        -7.1960   -2.2740   -3.5720 h1        1 MOL      0.085737
    136 H63        -5.5530   -3.5630   -3.1710 ho        1 MOL      0.416687
    137 H64        -4.5240   -1.2710   -4.5220 hc        1 MOL      0.085845
    138 H65        -5.4750   -2.5190   -5.3130 hc        1 MOL      0.085845
    139 H66        -5.9870   -0.7870   -5.3180 hc        1 MOL      0.085845
    140 N12        -8.6810   -0.1790   -1.4540 n         1 MOL     -0.448929
    141 C43        -9.7170   -0.3430   -0.3930 c3        1 MOL      0.102030
    142 C44        -9.3420   -0.0250    1.0560 c         1 MOL      0.594505
    143 O21        -9.5140   -0.8800    1.8870 o         1 MOL     -0.485636
    144 C45       -10.5140   -1.6700   -0.6280 c3        1 MOL     -0.497090
    145 C46       -11.1490   -1.9320   -2.0300 c3        1 MOL      0.196725
    146 C47       -12.0450   -0.7170   -2.3700 c3        1 MOL     -0.399990
    147 C48       -12.8550   -0.9760   -3.6610 c3        1 MOL     -0.002037
    148 N13       -12.0750   -0.7500   -4.8820 n4        1 MOL     -0.225590
    149 H67        -8.8910    0.4740   -2.2000 hn        1 MOL      0.238774
    150 H68       -10.4100    0.4870   -0.5590 h1        1 MOL      0.030069
    151 H69       -11.3890   -1.7090    0.0130 hc        1 MOL      0.176384
    152 H70        -9.8960   -2.4840   -0.2460 hc        1 MOL      0.176384
    153 H71       -11.7590   -2.8250   -1.9770 hc        1 MOL      0.008958
    154 H72       -10.3950   -2.1700   -2.7870 hc        1 MOL      0.008958
    155 H73       -11.5520    0.2220   -2.5690 hc        1 MOL      0.162000
    156 H74       -12.8350   -0.6760   -1.6060 hc        1 MOL      0.162000
    157 H75       -13.7800   -0.4020   -3.5970 hx        1 MOL      0.116073
    158 H76       -13.2530   -1.9880   -3.6100 hx        1 MOL      0.116073
    159 H77       -11.8620    0.2290   -4.9870 hn        1 MOL      0.198770
    160 H78       -11.1580   -1.1560   -4.9390 hn        1 MOL      0.198770
    161 H79       -12.5190   -1.0190   -5.7580 hn        1 MOL      0.198770
    162 N14        -8.5690    1.0660    1.2490 n         1 MOL     -0.712171
    163 C49        -7.9040    1.2720    2.5850 c3        1 MOL      0.423190
    164 C50        -6.5630    1.9870    2.5750 c         1 MOL      0.321270
    165 O22        -5.5760    1.4960    3.1430 o         1 MOL     -0.532667
    166 C51        -8.9400    1.9680    3.5300 c3        1 MOL     -0.214148
    167 C52        -8.3240    1.8810    4.9430 c3        1 MOL     -0.110005
    168 C53        -9.0230    2.7980    5.9050 c         1 MOL      0.681814
    169 O23        -8.4500    3.1490    7.0050 o         1 MOL     -0.619277
    170 O24       -10.0620    3.3870    5.5600 o         1 MOL     -0.619277
    171 H80        -8.0370    1.3560    0.4360 hn        1 MOL      0.339331
    172 H81        -7.7230    0.2640    2.9520 h1        1 MOL      0.026551
    173 H82        -9.9290    1.5150    3.4930 hc        1 MOL      0.077530
    174 H83        -9.0610    3.0310    3.3100 hc        1 MOL      0.077530
    175 H84        -7.2810    2.2090    4.9370 hc        1 MOL      0.034335
    176 H85        -8.3110    0.8670    5.3410 hc        1 MOL      0.034335
    177 N15        -6.4060    3.2040    1.9500 n         1 MOL     -0.193710
    178 C54        -7.3350    4.2460    1.4780 c3        1 MOL     -0.005322
    179 H86        -7.5490    4.9370    2.2940 h1        1 MOL      0.036402
    180 H87        -6.8810    4.7910    0.6510 h1        1 MOL      0.036402
    181 H88        -8.2620    3.7820    1.1430 h1        1 MOL      0.036402
    182 H89        -5.4200    3.3600    1.7980 hn        1 MOL      0.176809
    183 Ca1         1.5690   -2.2990    1.9840 Ca        1 MOL      1.633408
    184 O25        -0.5020   -3.6790    2.8530 oh        1 MOL     -0.796454
    185 H90        -0.4960   -4.5430    3.2700 ho        1 MOL      0.400316
    186 H91        -1.4190   -3.5480    2.5970 ho        1 MOL      0.400316
    187 O26         3.4520   -1.3340    3.6880 oh        1 MOL     -0.796454
    188 H92         3.5800   -0.9270    4.5440 ho        1 MOL      0.400316
    189 H93         4.3320   -1.3890    3.3180 ho        1 MOL      0.400316
    190 O27         0.2850   -1.5930    4.4040 oh        1 MOL     -0.796454
    191 H94        -0.4160   -2.2300    4.2270 ho        1 MOL      0.400316
    192 H95         0.6790   -1.9100    5.2190 ho        1 MOL      0.400316
    193 O28        -0.5130   -0.6690    1.6390 oh        1 MOL     -0.796454
    194 H96        -0.8560   -0.9900    0.8000 ho        1 MOL      0.400316
    195 H97        -1.1780   -0.0670    1.9590 ho        1 MOL      0.400316
@<TRIPOS>BOND
     1    1    2 1   
     2    1    4 1   
     3    1    5 1   
     4    1    6 1   
     5    2    3 2   
     6    2    7 1   
     7    7    8 1   
     8    7   15 1   
     9    8    9 1   
    10    8   11 1   
    11    8   16 1   
    12    9   10 2   
    13    9   19 1   
    14   11   12 1   
    15   11   17 1   
    16   11   18 1   
    17   12   13 1   
    18   12   14 1   
    19   19   20 1   
    20   19   28 1   
    21   20   21 1   
    22   20   23 1   
    23   20   29 1   
    24   21   22 2   
    25   21   41 1   
    26   23   24 1   
    27   23   30 1   
    28   23   31 1   
    29   24   25 1   
    30   24   32 1   
    31   24   33 1   
    32   25   26 1   
    33   25   34 1   
    34   25   35 1   
    35   26   27 1   
    36   26   36 1   
    37   26   37 1   
    38   27   38 1   
    39   27   39 1   
    40   27   40 1   
    41   41   42 1   
    42   41   49 1   
    43   42   43 1   
    44   42   45 1   
    45   42   50 1   
    46   43   44 2   
    47   43   53 1   
    48   45   46 1   
    49   45   51 1   
    50   45   52 1   
    51   46   47 1   
    52   46   48 1   
    53   53   54 1   
    54   53   57 1   
    55   54   55 1   
    56   54   58 1   
    57   54   59 1   
    58   55   56 2   
    59   55   60 1   
    60   60   61 1   
    61   60   68 1   
    62   61   62 1   
    63   61   64 1   
    64   61   69 1   
    65   62   63 2   
    66   62   72 1   
    67   64   65 1   
    68   64   70 1   
    69   64   71 1   
    70   65   66 1   
    71   65   67 1   
    72   72   73 1   
    73   72   76 1   
    74   73   74 1   
    75   73   77 1   
    76   73   78 1   
    77   74   75 2   
    78   74   79 1   
    79   79   80 1   
    80   79   86 1   
    81   80   81 1   
    82   80   83 1   
    83   80   87 1   
    84   81   82 2   
    85   81   93 1   
    86   83   84 1   
    87   83   85 1   
    88   83   88 1   
    89   84   90 1   
    90   84   91 1   
    91   84   92 1   
    92   85   89 1   
    93   93   94 1   
    94   93  101 1   
    95   94   95 1   
    96   94   97 1   
    97   94  102 1   
    98   95   96 2   
    99   95  112 1   
   100   97   98 1   
   101   97   99 1   
   102   97  103 1   
   103   98  100 1   
   104   98  104 1   
   105   98  105 1   
   106   99  106 1   
   107   99  107 1   
   108   99  108 1   
   109  100  109 1   
   110  100  110 1   
   111  100  111 1   
   112  112  113 1   
   113  112  119 1   
   114  113  114 1   
   115  113  116 1   
   116  113  120 1   
   117  114  115 2   
   118  114  126 1   
   119  116  117 1   
   120  116  118 1   
   121  116  121 1   
   122  117  123 1   
   123  117  124 1   
   124  117  125 1   
   125  118  122 1   
   126  126  127 1   
   127  126  133 1   
   128  127  128 1   
   129  127  130 1   
   130  127  134 1   
   131  128  129 2   
   132  128  140 1   
   133  130  131 1   
   134  130  132 1   
   135  130  135 1   
   136  131  137 1   
   137  131  138 1   
   138  131  139 1   
   139  132  136 1   
   140  140  141 1   
   141  140  149 1   
   142  141  142 1   
   143  141  144 1   
   144  141  150 1   
   145  142  143 2   
   146  142  162 1   
   147  144  145 1   
   148  144  151 1   
   149  144  152 1   
   150  145  146 1   
   151  145  153 1   
   152  145  154 1   
   153  146  147 1   
   154  146  155 1   
   155  146  156 1   
   156  147  148 1   
   157  147  157 1   
   158  147  158 1   
   159  148  159 1   
   160  148  160 1   
   161  148  161 1   
   162  162  163 1   
   163  162  171 1   
   164  163  164 1   
   165  163  166 1   
   166  163  172 1   
   167  164  165 2   
   168  164  177 1   
   169  166  167 1   
   170  166  173 1   
   171  166  174 1   
   172  167  168 1   
   173  167  175 1   
   174  167  176 1   
   175  168  169 1   
   176  168  170 1   
   177  177  178 1   
   178  177  182 1   
   179  178  179 1   
   180  178  180 1   
   181  178  181 1   
   182  184  185 1   
   183  184  186 1   
   184  187  188 1   
   185  187  189 1   
   186  190  191 1   
   187  190  192 1   
   188  193  194 1   
   189  193  195 1   
@<TRIPOS>SUBSTRUCTURE
     1 MOL         1 TEMP              0 ****  ****    0 ROOT
