@<TRIPOS>MOLECULE
MOL
  181   177     1     0     0
SMALL
resp


@<TRIPOS>ATOM
      1 C1         -4.1990   -2.4080   -3.5510 c3        1 MOL     -0.411019
      2 C2         -5.2630   -1.3640   -3.0820 c         1 MOL      0.655044
      3 O1         -4.9080   -0.2410   -2.6650 o         1 MOL     -0.576639
      4 H1         -4.1890   -2.4520   -4.6400 hc        1 MOL      0.101551
      5 H2         -3.2130   -2.1110   -3.1910 hc        1 MOL      0.101551
      6 H3         -4.4510   -3.3900   -3.1510 hc        1 MOL      0.101551
      7 N1         -6.5310   -1.7480   -3.0890 n         1 MOL     -0.527270
      8 C3         -7.5940   -0.8830   -2.6920 c3        1 MOL      0.165178
      9 C4         -7.6120   -0.4470   -1.2290 c         1 MOL      0.506574
     10 O2         -7.4290   -1.3480   -0.3650 o         1 MOL     -0.515812
     11 C5         -8.9000   -1.5350   -3.1000 c3        1 MOL     -0.292983
     12 C6        -10.1100   -0.7280   -2.6070 c         1 MOL      0.782382
     13 O3        -11.1470   -1.3180   -2.4050 o         1 MOL     -0.743271
     14 O4        -10.0500    0.4900   -2.4880 o         1 MOL     -0.743271
     15 H4         -6.7580   -2.7060   -3.3030 hn        1 MOL      0.308645
     16 H5         -7.5790    0.1130   -3.1160 h1        1 MOL      0.004575
     17 H6         -8.9870   -2.5370   -2.6850 hc        1 MOL      0.036228
     18 H7         -8.8920   -1.6970   -4.1810 hc        1 MOL      0.036228
     19 N2         -7.6990    0.8680   -0.8820 n         1 MOL     -0.333973
     20 C7         -7.5460    1.2580    0.5040 c3        1 MOL      0.097384
     21 C8         -6.1650    0.9500    1.1010 c         1 MOL      0.559502
     22 O5         -5.1320    1.2420    0.4850 o         1 MOL     -0.537652
     23 C9         -7.9120    2.7760    0.5160 c3        1 MOL     -0.293236
     24 H8         -7.6550    1.5850   -1.5820 hn        1 MOL      0.262614
     25 H9         -8.2850    0.7060    1.0890 h1        1 MOL      0.058659
     26 H10        -7.3280    3.3840   -0.1810 hc        1 MOL      0.081579
     27 H11        -8.9840    2.9310    0.3940 hc        1 MOL      0.081579
     28 H12        -7.6550    3.1430    1.5090 hc        1 MOL      0.081579
     29 N3         -6.0660    0.2700    2.3000 n         1 MOL     -0.556339
     30 C10        -4.7810    0.0290    2.9450 c3        1 MOL      0.122421
     31 C11        -4.4130    1.3270    3.8250 c         1 MOL      0.636098
     32 O6         -5.2120    1.8000    4.5820 o         1 MOL     -0.575123
     33 C12        -4.7800   -1.2480    3.8690 c3        1 MOL     -0.098093
     34 C13        -5.1490   -2.5540    3.2780 c         1 MOL      0.714541
     35 O7         -5.9580   -3.3460    3.8650 o         1 MOL     -0.718850
     36 O8         -4.6170   -2.9680    2.1880 o         1 MOL     -0.718850
     37 H13        -6.9410   -0.1000    2.6460 hn        1 MOL      0.317746
     38 H14        -3.9680    0.0080    2.2210 h1        1 MOL     -0.006335
     39 H15        -5.4480   -1.0120    4.6900 hc        1 MOL     -0.006843
     40 H16        -3.8010   -1.4230    4.3030 hc        1 MOL     -0.006843
     41 N4         -3.1780    1.7820    3.8390 n         1 MOL     -0.421506
     42 C14        -2.7770    2.8460    4.7170 c3        1 MOL      0.033568
     43 C15        -1.3810    3.4510    4.4550 c         1 MOL      0.577375
     44 O9         -1.1950    4.6490    4.6290 o         1 MOL     -0.561184
     45 H17        -2.4850    1.4290    3.2030 hn        1 MOL      0.261472
     46 H18        -2.7680    2.4000    5.7120 h1        1 MOL      0.048837
     47 H19        -3.4800    3.6710    4.8380 h1        1 MOL      0.048837
     48 N5         -0.4240    2.7490    3.7830 n         1 MOL     -0.526940
     49 C16         0.9160    3.4080    3.4760 c3        1 MOL      0.037983
     50 C17         0.6790    4.5150    2.4310 c         1 MOL      0.681564
     51 O10        -0.1490    4.4390    1.4670 o         1 MOL     -0.491166
     52 C18         1.8430    2.2880    3.0150 c3        1 MOL     -0.350777
     53 C19         2.3530    1.5140    4.2680 c         1 MOL      0.727166
     54 N6          3.2010    2.1580    5.0660 n         1 MOL     -0.813137
     55 O11         1.9110    0.3830    4.5800 o         1 MOL     -0.545489
     56 H20        -0.4210    1.7860    3.4840 hn        1 MOL      0.331157
     57 H21         1.1970    3.9590    4.3710 h1        1 MOL      0.043416
     58 H22         2.7350    2.6900    2.5410 hc        1 MOL      0.095506
     59 H23         1.4010    1.4670    2.4550 hc        1 MOL      0.095506
     60 H24         3.3770    3.1410    4.9130 hn        1 MOL      0.359940
     61 H25         3.5160    1.7200    5.9150 hn        1 MOL      0.359940
     62 N7          1.4470    5.6190    2.5830 n         1 MOL     -0.475590
     63 C20         1.4020    6.6960    1.6280 c3        1 MOL     -0.132042
     64 C21         2.1860    6.3550    0.3380 c         1 MOL      0.583687
     65 O12         3.0490    5.4790    0.3500 o         1 MOL     -0.518732
     66 H26         2.2150    5.5410    3.2330 hn        1 MOL      0.281340
     67 H27         1.8970    7.5600    2.0760 h1        1 MOL      0.103981
     68 H28         0.3600    6.9690    1.4880 h1        1 MOL      0.103981
     69 N8          1.9050    7.1230   -0.7020 n         1 MOL     -0.421341
     70 C22         2.6290    7.0160   -2.0010 c3        1 MOL     -0.206863
     71 C23         2.5720    5.6250   -2.6880 c         1 MOL      0.414027
     72 O13         3.3740    5.3720   -3.6100 o         1 MOL     -0.517587
     73 C24         2.2240    8.1710   -2.9320 c3        1 MOL      0.462270
     74 C25         0.8590    8.0490   -3.6040 c3        1 MOL     -0.271629
     75 O14         2.2820    9.3040   -2.1130 oh        1 MOL     -0.623117
     76 H29         1.1570    7.7810   -0.5730 hn        1 MOL      0.247082
     77 H30         3.6770    7.1770   -1.7500 h1        1 MOL      0.154562
     78 H31         2.9220    8.2700   -3.7680 h1        1 MOL      0.031085
     79 H32         1.4340    9.2280   -1.6590 ho        1 MOL      0.364150
     80 H33         0.8220    7.0930   -4.1160 hc        1 MOL      0.067134
     81 H34        -0.0030    8.2280   -2.9570 hc        1 MOL      0.067134
     82 H35         0.7780    8.8140   -4.3820 hc        1 MOL      0.067134
     83 N9          1.7530    4.6790   -2.1690 n         1 MOL     -0.249565
     84 C26         1.6800    3.2500   -2.6440 c3        1 MOL      0.017935
     85 C27         1.2090    2.3450   -1.5240 c         1 MOL      0.474509
     86 O15         0.0650    2.5930   -1.0520 o         1 MOL     -0.476576
     87 C28         0.5980    3.2120   -3.7560 c3        1 MOL     -0.050200
     88 C29         0.9320    3.9210   -5.0530 c3        1 MOL     -0.168065
     89 C30         0.2630    1.7430   -4.3170 c3        1 MOL     -0.005874
     90 C31         2.1770    3.3970   -5.7000 c3        1 MOL     -0.172679
     91 H36         1.1170    5.0020   -1.4570 hn        1 MOL      0.208133
     92 H37         2.6640    2.9080   -2.9770 h1        1 MOL      0.137161
     93 H38        -0.3180    3.6720   -3.4030 hc        1 MOL      0.056607
     94 H39         1.1550    4.9750   -4.9040 hc        1 MOL      0.080707
     95 H40         0.1590    3.9170   -5.8170 hc        1 MOL      0.080707
     96 H41        -0.1650    1.0740   -3.5690 hc        1 MOL      0.034392
     97 H42        -0.3520    1.6980   -5.2130 hc        1 MOL      0.034392
     98 H43         1.1790    1.1750   -4.5050 hc        1 MOL      0.034392
     99 H44         1.9650    2.4510   -6.1950 hc        1 MOL      0.033536
    100 H45         2.5520    4.1250   -6.4180 hc        1 MOL      0.033536
    101 H46         2.9400    3.3160   -4.9180 hc        1 MOL      0.033536
    102 N10         1.9240    1.2880   -1.2120 n         1 MOL     -0.637836
    103 C32         1.5450    0.1120   -0.3470 c3        1 MOL      0.342336
    104 C33         2.7060   -0.5270    0.4780 c         1 MOL      0.401840
    105 O16         2.4550   -1.4740    1.2340 o         1 MOL     -0.481892
    106 C34         0.9050   -0.8990   -1.2580 c3        1 MOL      0.212709
    107 C35        -0.1850   -1.7460   -0.5510 c         1 MOL      0.756325
    108 O17        -0.8780   -2.4400   -1.2290 o         1 MOL     -0.774016
    109 O18        -0.4540   -1.5890    0.6730 o         1 MOL     -0.774016
    110 H47         2.8320    1.3070   -1.6460 hn        1 MOL      0.271316
    111 H48         0.7760    0.4520    0.3490 h1        1 MOL      0.027885
    112 H49         1.6620   -1.5360   -1.7260 hc        1 MOL     -0.107247
    113 H50         0.3800   -0.3920   -2.0750 hc        1 MOL     -0.107247
    114 N11         3.8870    0.0490    0.2640 n         1 MOL     -0.386628
    115 C36         5.0540   -0.6230    0.8200 c3        1 MOL      0.105552
    116 C37         5.4470   -1.9290    0.0300 c         1 MOL      0.246928
    117 O19         5.4050   -1.7610   -1.2160 o         1 MOL     -0.491941
    118 C38         6.2010    0.3800    0.7860 c3        1 MOL     -0.080190
    119 C39         7.5500   -0.2660    1.1170 ca        1 MOL      0.008249
    120 C40         8.0440   -0.0080    2.3940 ca        1 MOL     -0.125186
    121 C41         8.2930   -1.0150    0.1720 ca        1 MOL     -0.125186
    122 C42         9.2450   -0.5870    2.8230 ca        1 MOL     -0.105255
    123 C43         9.5110   -1.5200    0.6190 ca        1 MOL     -0.105255
    124 C44         9.9680   -1.3150    1.8870 ca        1 MOL     -0.108581
    125 H51         4.0030    0.8220   -0.3640 hn        1 MOL      0.259976
    126 H52         4.8870   -0.8580    1.8740 h1        1 MOL      0.039175
    127 H53         5.9860    1.2570    1.3990 hc        1 MOL      0.057021
    128 H54         6.2450    0.8590   -0.1840 hc        1 MOL      0.057021
    129 H55         7.4070    0.5590    3.0480 ha        1 MOL      0.114442
    130 H56         7.9630   -1.2300   -0.8420 ha        1 MOL      0.114442
    131 H57         9.5980   -0.4480    3.8340 ha        1 MOL      0.103863
    132 H58        10.1670   -2.0960   -0.0290 ha        1 MOL      0.103863
    133 H59        10.9950   -1.5310    2.1480 ha        1 MOL      0.092239
    134 N12         5.7880   -3.1080    0.5280 n         1 MOL      0.044164
    135 C45         6.1910   -4.2510   -0.2410 c3        1 MOL      0.098247
    136 C46         5.2150   -4.7880   -1.3200 c         1 MOL      0.199810
    137 O20         5.7360   -5.2970   -2.2550 o         1 MOL     -0.505755
    138 C47         6.4430   -5.3130    0.8070 c3        1 MOL      0.045689
    139 C48         6.9580   -4.4870    2.0080 c3        1 MOL     -0.231844
    140 C49         6.1130   -3.2300    1.9200 c3        1 MOL     -0.027855
    141 H60         7.1270   -3.9330   -0.7110 h1        1 MOL      0.059721
    142 H61         5.5110   -5.7930    1.1130 hc        1 MOL      0.031330
    143 H62         7.1610   -6.0750    0.5050 hc        1 MOL      0.031330
    144 H63         6.7180   -5.0220    2.9190 hc        1 MOL      0.072908
    145 H64         7.9990   -4.2460    1.7690 hc        1 MOL      0.072908
    146 H65         5.1410   -3.5460    2.2980 h1        1 MOL      0.053308
    147 H66         6.5090   -2.3140    2.3630 h1        1 MOL      0.053308
    148 N13         3.8980   -4.6620   -1.2910 n         1 MOL     -0.133208
    149 C50         2.9910   -5.1510   -2.3440 c3        1 MOL      0.003621
    150 C51         3.0870   -4.4440   -3.7050 c         1 MOL      0.380789
    151 O21         2.6440   -5.0200   -4.7110 o         1 MOL     -0.548532
    152 C52         1.5340   -4.9230   -1.8840 c3        1 MOL     -0.172037
    153 C53         1.1740   -5.8140   -0.6710 c3        1 MOL     -0.215247
    154 C54        -0.0150   -5.2630    0.1220 c         1 MOL      0.701021
    155 O22        -1.1840   -5.6800   -0.1540 o         1 MOL     -0.716253
    156 O23         0.1710   -4.6050    1.1480 o         1 MOL     -0.716253
    157 H67         3.5260   -4.2770   -0.4330 hn        1 MOL      0.211069
    158 H68         3.1460   -6.2060   -2.5540 h1        1 MOL      0.102996
    159 H69         0.8830   -5.0660   -2.7530 hc        1 MOL      0.097646
    160 H70         1.3990   -3.8900   -1.5910 hc        1 MOL      0.097646
    161 H71         2.0540   -5.8890   -0.0360 hc        1 MOL      0.043988
    162 H72         0.9350   -6.8330   -0.9660 hc        1 MOL      0.043988
    163 N14         3.7480   -3.3130   -3.7320 n         1 MOL     -0.053666
    164 C55         3.9560   -2.5230   -4.9150 c3        1 MOL     -0.190442
    165 H73         3.5920   -3.0700   -5.7850 h1        1 MOL      0.075387
    166 H74         3.4130   -1.5830   -4.8240 h1        1 MOL      0.075387
    167 H75         5.0200   -2.3190   -5.0340 h1        1 MOL      0.075387
    168 H76         4.0620   -2.9910   -2.8310 hn        1 MOL      0.171980
    169 Ca1        -2.3500   -3.4850    0.8090 Ca        1 MOL      1.766215
    170 O24        -4.2770   -4.9030   -0.6950 oh        1 MOL     -0.849037
    171 H77        -5.2100   -4.7570   -0.5380 ho        1 MOL      0.416571
    172 H78        -4.2610   -5.5220   -1.4290 ho        1 MOL      0.416571
    173 O25        -3.4720   -1.1450   -0.1250 oh        1 MOL     -0.849037
    174 H79        -4.2860   -0.6630    0.0050 ho        1 MOL      0.416571
    175 H80        -2.9800   -0.6270   -0.7490 ho        1 MOL      0.416571
    176 O26        -3.0290   -5.4080    2.4080 oh        1 MOL     -0.849037
    177 H81        -2.7920   -5.3400    3.3350 ho        1 MOL      0.416571
    178 H82        -3.9790   -5.4490    2.4080 ho        1 MOL      0.416571
    179 O27        -1.7240   -3.0890    3.5220 oh        1 MOL     -0.849037
    180 H83        -1.6210   -3.6340    4.3020 ho        1 MOL      0.416571
    181 H84        -1.0550   -2.4110    3.6070 ho        1 MOL      0.416571
@<TRIPOS>BOND
     1    1    2 1   
     2    1    4 1   
     3    1    5 1   
     4    1    6 1   
     5    2    3 2   
     6    2    7 1   
     7    7    8 1   
     8    7   15 1   
     9    8    9 1   
    10    8   11 1   
    11    8   16 1   
    12    9   10 2   
    13    9   19 1   
    14   11   12 1   
    15   11   17 1   
    16   11   18 1   
    17   12   13 1   
    18   12   14 1   
    19   19   20 1   
    20   19   24 1   
    21   20   21 1   
    22   20   23 1   
    23   20   25 1   
    24   21   22 2   
    25   21   29 1   
    26   23   26 1   
    27   23   27 1   
    28   23   28 1   
    29   29   30 1   
    30   29   37 1   
    31   30   31 1   
    32   30   33 1   
    33   30   38 1   
    34   31   32 2   
    35   31   41 1   
    36   33   34 1   
    37   33   39 1   
    38   33   40 1   
    39   34   35 1   
    40   34   36 1   
    41   41   42 1   
    42   41   45 1   
    43   42   43 1   
    44   42   46 1   
    45   42   47 1   
    46   43   44 2   
    47   43   48 1   
    48   48   49 1   
    49   48   56 1   
    50   49   50 1   
    51   49   52 1   
    52   49   57 1   
    53   50   51 2   
    54   50   62 1   
    55   52   53 1   
    56   52   58 1   
    57   52   59 1   
    58   53   54 1   
    59   53   55 2   
    60   54   60 1   
    61   54   61 1   
    62   62   63 1   
    63   62   66 1   
    64   63   64 1   
    65   63   67 1   
    66   63   68 1   
    67   64   65 2   
    68   64   69 1   
    69   69   70 1   
    70   69   76 1   
    71   70   71 1   
    72   70   73 1   
    73   70   77 1   
    74   71   72 2   
    75   71   83 1   
    76   73   74 1   
    77   73   75 1   
    78   73   78 1   
    79   74   80 1   
    80   74   81 1   
    81   74   82 1   
    82   75   79 1   
    83   83   84 1   
    84   83   91 1   
    85   84   85 1   
    86   84   87 1   
    87   84   92 1   
    88   85   86 2   
    89   85  102 1   
    90   87   88 1   
    91   87   89 1   
    92   87   93 1   
    93   88   90 1   
    94   88   94 1   
    95   88   95 1   
    96   89   96 1   
    97   89   97 1   
    98   89   98 1   
    99   90   99 1   
   100   90  100 1   
   101   90  101 1   
   102  102  103 1   
   103  102  110 1   
   104  103  104 1   
   105  103  106 1   
   106  103  111 1   
   107  104  105 2   
   108  104  114 1   
   109  106  107 1   
   110  106  112 1   
   111  106  113 1   
   112  107  108 1   
   113  107  109 1   
   114  114  115 1   
   115  114  125 1   
   116  115  116 1   
   117  115  118 1   
   118  115  126 1   
   119  116  117 2   
   120  116  134 1   
   121  118  119 1   
   122  118  127 1   
   123  118  128 1   
   124  119  120 ar  
   125  119  121 ar  
   126  120  122 ar  
   127  120  129 1   
   128  121  123 ar  
   129  121  130 1   
   130  122  124 ar  
   131  122  131 1   
   132  123  124 ar  
   133  123  132 1   
   134  124  133 1   
   135  134  135 1   
   136  134  140 1   
   137  135  136 1   
   138  135  138 1   
   139  135  141 1   
   140  136  137 2   
   141  136  148 1   
   142  138  139 1   
   143  138  142 1   
   144  138  143 1   
   145  139  140 1   
   146  139  144 1   
   147  139  145 1   
   148  140  146 1   
   149  140  147 1   
   150  148  149 1   
   151  148  157 1   
   152  149  150 1   
   153  149  152 1   
   154  149  158 1   
   155  150  151 2   
   156  150  163 1   
   157  152  153 1   
   158  152  159 1   
   159  152  160 1   
   160  153  154 1   
   161  153  161 1   
   162  153  162 1   
   163  154  155 1   
   164  154  156 1   
   165  163  164 1   
   166  163  168 1   
   167  164  165 1   
   168  164  166 1   
   169  164  167 1   
   170  170  171 1   
   171  170  172 1   
   172  173  174 1   
   173  173  175 1   
   174  176  177 1   
   175  176  178 1   
   176  179  180 1   
   177  179  181 1   
@<TRIPOS>SUBSTRUCTURE
     1 MOL         1 TEMP              0 ****  ****    0 ROOT
