@<TRIPOS>MOLECULE
MOL
  191   184     1     0     0
SMALL
resp


@<TRIPOS>ATOM
      1 C1          8.9840    6.5790    0.3170 c3        1 MOL     -0.331823
      2 C2          9.4440    5.1360    0.8270 c         1 MOL      0.654249
      3 O1          9.2830    4.8140    2.0380 o         1 MOL     -0.586109
      4 H1          8.2530    6.4640   -0.4840 hc        1 MOL      0.084374
      5 H2          8.5330    7.1290    1.1430 hc        1 MOL      0.084374
      6 H3          9.8490    7.1260   -0.0560 hc        1 MOL      0.084374
      7 N1          9.9940    4.2960   -0.0280 n         1 MOL     -0.544555
      8 C3         10.5710    2.9970    0.3650 c3        1 MOL      0.163058
      9 C4          9.7870    1.8140   -0.2970 c         1 MOL      0.470919
     10 O2          9.6760    1.7400   -1.4780 o         1 MOL     -0.506979
     11 C5         12.0630    2.9330   -0.1250 c3        1 MOL     -0.218842
     12 C6         12.8040    1.5890    0.2120 c         1 MOL      0.749640
     13 O3         12.7770    0.6260   -0.5970 o         1 MOL     -0.725116
     14 O4         13.3670    1.5300    1.3110 o         1 MOL     -0.725116
     15 H4         10.0140    4.4420   -1.0300 hn        1 MOL      0.319957
     16 H5         10.4950    2.8030    1.4360 h1        1 MOL      0.063030
     17 H6         12.6740    3.7370    0.2790 hc        1 MOL      0.033981
     18 H7         12.0000    3.1390   -1.1910 hc        1 MOL      0.033981
     19 N2          9.2090    0.9840    0.5600 n         1 MOL     -0.444117
     20 C7          8.2220   -0.0340    0.2020 c3        1 MOL      0.076048
     21 C8          6.8350    0.3030    0.8710 c         1 MOL      0.705893
     22 O5          6.7200    1.2450    1.5930 o         1 MOL     -0.515903
     23 C9          8.7760   -1.3520    0.7520 c3        1 MOL     -0.127157
     24 C10         9.9990   -1.8210    0.0010 c3        1 MOL      0.043721
     25 C11        10.2530   -3.3370    0.1960 c3        1 MOL     -0.101142
     26 C12        11.7120   -3.6340   -0.2850 c3        1 MOL      0.116254
     27 N3         12.2790   -4.9130    0.2770 n4        1 MOL     -0.339571
     28 H8          9.4810    0.9720    1.5330 hn        1 MOL      0.285894
     29 H9          8.0920   -0.0400   -0.8770 h1        1 MOL      0.080529
     30 H10         8.0380   -2.1590    0.7290 hc        1 MOL      0.050112
     31 H11         8.9920   -1.2800    1.8170 hc        1 MOL      0.050112
     32 H12        10.8540   -1.2070    0.3060 hc        1 MOL      0.031262
     33 H13         9.8530   -1.5730   -1.0470 hc        1 MOL      0.031262
     34 H14         9.5210   -4.0220   -0.2200 hc        1 MOL      0.029034
     35 H15        10.2200   -3.5480    1.2610 hc        1 MOL      0.029034
     36 H16        12.4000   -2.8740    0.0890 hx        1 MOL      0.075132
     37 H17        11.7180   -3.6240   -1.3740 hx        1 MOL      0.075132
     38 H18        11.9090   -4.9170    1.2130 hn        1 MOL      0.310488
     39 H19        11.9080   -5.7080   -0.2290 hn        1 MOL      0.310488
     40 H20        13.2910   -4.9650    0.3400 hn        1 MOL      0.310488
     41 N4          5.8650   -0.6290    0.5440 n         1 MOL     -0.833614
     42 C13         4.4560   -0.5380    1.0590 c3        1 MOL      0.247875
     43 C14         3.9650   -1.8560    1.6690 c         1 MOL      0.541601
     44 O6          4.1810   -2.9280    1.0690 o         1 MOL     -0.485759
     45 C15         3.6330   -0.0250   -0.1210 c3        1 MOL     -0.059035
     46 C16         2.1760    0.1700    0.2940 c         1 MOL      0.468115
     47 O7          1.5040   -0.8720    0.6630 o         1 MOL     -0.623470
     48 O8          1.6930    1.2980    0.3720 o         1 MOL     -0.623470
     49 H21         6.1340   -1.4850    0.0620 hn        1 MOL      0.348969
     50 H22         4.4550    0.2880    1.7730 h1        1 MOL      0.028511
     51 H23         3.6570   -0.6480   -1.0100 hc        1 MOL      0.065598
     52 H24         4.0530    0.9420   -0.3790 hc        1 MOL      0.065598
     53 N5          3.3640   -1.7850    2.8500 n         1 MOL     -0.342798
     54 C17         3.0860   -2.9790    3.6090 c3        1 MOL     -0.158766
     55 C18         2.0060   -3.8920    2.9840 c         1 MOL      0.501879
     56 O9          2.1060   -5.0870    3.3120 o         1 MOL     -0.540328
     57 H25         3.1310   -0.9310    3.3410 hn        1 MOL      0.229434
     58 H26         2.6990   -2.6850    4.5830 h1        1 MOL      0.119180
     59 H27         3.9900   -3.5820    3.7350 h1        1 MOL      0.119180
     60 N6          1.2250   -3.4190    2.0100 n         1 MOL      0.001650
     61 C19         0.3720   -4.2740    1.1790 c3        1 MOL      0.048340
     62 C20         0.5020   -4.1450   -0.3320 c         1 MOL      0.313102
     63 O10        -0.3080   -4.6690   -1.1550 o         1 MOL     -0.440525
     64 C21        -1.1170   -4.2550    1.5910 c3        1 MOL     -0.341488
     65 C22        -1.7540   -2.8970    1.4880 c         1 MOL      0.707245
     66 N7         -2.9900   -2.7830    1.9000 n         1 MOL     -0.718038
     67 O11        -1.1580   -1.9820    0.9860 o         1 MOL     -0.406077
     68 H28         1.2370   -2.4590    1.7030 hn        1 MOL     -0.346583
     69 H29         0.7060   -5.2380    1.5670 h1        1 MOL      0.107497
     70 H30        -1.1700   -4.6560    2.5980 hc        1 MOL      0.118201
     71 H31        -1.6820   -4.9270    0.9460 hc        1 MOL      0.118201
     72 H32        -3.4230   -3.5470    2.4040 hn        1 MOL      0.328560
     73 H33        -3.3420   -1.8620    2.1330 hn        1 MOL      0.328560
     74 N8          1.6500   -3.5460   -0.8070 n         1 MOL     -0.170198
     75 C23         2.0060   -3.5210   -2.2330 c3        1 MOL     -0.093430
     76 C24         1.3820   -2.3640   -2.9590 c         1 MOL      0.472078
     77 O12         1.4090   -2.2960   -4.2270 o         1 MOL     -0.557493
     78 H34         2.2850   -3.1620   -0.1220 hn        1 MOL      0.191658
     79 H35         1.7020   -4.4540   -2.7030 h1        1 MOL      0.107290
     80 H36         3.0830   -3.4980   -2.3700 h1        1 MOL      0.107290
     81 N9          0.8750   -1.2900   -2.3320 n         1 MOL     -0.228093
     82 C25         0.2340   -0.1050   -2.9330 c3        1 MOL      0.096563
     83 C26        -1.0660    0.2550   -2.1780 c         1 MOL      0.191290
     84 O13        -1.1700    0.0770   -0.9610 o         1 MOL     -0.517243
     85 C27         1.1660    1.0470   -3.0380 c3        1 MOL     -0.084482
     86 C28         0.6030    2.3240   -3.6170 ca        1 MOL      0.056043
     87 C29         0.0860    2.4100   -4.9470 ca        1 MOL     -0.213295
     88 C30         0.4260    3.4540   -2.7740 ca        1 MOL     -0.213295
     89 C31        -0.5250    3.6270   -5.3880 ca        1 MOL     -0.184390
     90 C32        -0.1860    4.6400   -3.2250 ca        1 MOL     -0.184390
     91 C33        -0.6440    4.7280   -4.5400 ca        1 MOL      0.285206
     92 O14        -1.3920    5.7850   -4.9760 oh        1 MOL     -0.487027
     93 H37         1.0000   -1.2380   -1.3360 hn        1 MOL      0.174107
     94 H38        -0.1060   -0.4040   -3.9160 h1        1 MOL      0.041589
     95 H39         2.0380    0.6440   -3.5500 hc        1 MOL      0.061484
     96 H40         1.6080    1.2920   -2.0770 hc        1 MOL      0.061484
     97 H41         0.2390    1.5930   -5.6290 ha        1 MOL      0.151131
     98 H42         0.6000    3.3840   -1.7070 ha        1 MOL      0.151131
     99 H43        -0.9850    3.7240   -6.3570 ha        1 MOL      0.136196
    100 H44        -0.3020    5.4640   -2.5280 ha        1 MOL      0.136196
    101 H45        -1.4780    6.5530   -4.4040 ho        1 MOL      0.382644
    102 N10        -2.0750    0.5020   -2.9540 n         1 MOL     -0.096925
    103 C34        -3.4180    0.6980   -2.4150 c3        1 MOL     -0.029876
    104 C35        -3.9430   -0.6110   -1.7010 c         1 MOL      0.251695
    105 O15        -4.6290   -0.4650   -0.6920 o         1 MOL     -0.453681
    106 C36        -4.3490    1.0830   -3.5910 c3        1 MOL      0.082194
    107 C37        -3.8860    2.3300   -4.3390 c3        1 MOL     -0.014723
    108 C38        -5.8580    1.2460   -3.2580 c3        1 MOL     -0.487625
    109 C39        -3.9060    3.6690   -3.5780 c3        1 MOL      0.050558
    110 H46        -2.0500    0.4250   -3.9570 hn        1 MOL      0.235737
    111 H47        -3.4450    1.4640   -1.6420 h1        1 MOL      0.105843
    112 H48        -4.1450    0.2900   -4.3050 hc        1 MOL     -0.022103
    113 H49        -4.4680    2.4320   -5.2610 hc        1 MOL      0.025322
    114 H50        -2.8400    2.1810   -4.6100 hc        1 MOL      0.025322
    115 H51        -6.3630    1.7040   -4.1130 hc        1 MOL      0.147566
    116 H52        -6.1970    0.2470   -2.9950 hc        1 MOL      0.147566
    117 H53        -6.0060    1.8400   -2.3610 hc        1 MOL      0.147566
    118 H54        -4.8260    3.9020   -3.0560 hc        1 MOL     -0.018845
    119 H55        -3.0780    3.8120   -2.8870 hc        1 MOL     -0.018845
    120 H56        -3.6680    4.3950   -4.3610 hc        1 MOL     -0.018845
    121 N11        -3.5720   -1.7720   -2.1990 n         1 MOL     -0.107239
    122 C40        -3.7700   -3.1110   -1.6980 c3        1 MOL      0.003812
    123 C41        -5.2610   -3.2630   -1.3780 c         1 MOL      0.422760
    124 O16        -5.6730   -3.7430   -0.3100 o         1 MOL     -0.484324
    125 C42        -3.2790   -4.1290   -2.7600 c3        1 MOL      0.149877
    126 O17        -1.9900   -4.0270   -3.2700 oh        1 MOL     -0.533812
    127 H57        -3.0330   -1.6780   -3.0470 hn        1 MOL      0.178566
    128 H58        -3.2590   -3.2460   -0.7420 h1        1 MOL      0.064391
    129 H59        -3.9080   -4.1450   -3.6590 h1        1 MOL      0.035595
    130 H60        -3.3590   -5.0670   -2.2160 h1        1 MOL      0.035595
    131 H61        -1.3700   -4.1650   -2.5560 ho        1 MOL      0.350476
    132 N12        -6.1580   -2.9150   -2.3150 n         1 MOL     -0.495635
    133 C43        -7.6280   -3.0750   -2.1850 c3        1 MOL      0.333896
    134 C44        -8.3380   -2.4360   -0.9560 c         1 MOL      0.545813
    135 O18        -9.5040   -2.7890   -0.7250 o         1 MOL     -0.536144
    136 C45        -8.0800   -4.4710   -2.5990 c3        1 MOL     -0.449622
    137 H62        -5.8320   -2.5200   -3.1800 hn        1 MOL      0.276577
    138 H63        -8.0410   -2.4300   -2.9630 h1        1 MOL      0.017324
    139 H64        -9.1620   -4.4710   -2.6030 hc        1 MOL      0.124852
    140 H65        -7.6980   -4.6970   -3.5990 hc        1 MOL      0.124852
    141 H66        -7.5900   -5.1390   -1.9010 hc        1 MOL      0.124852
    142 N13        -7.6330   -1.4590   -0.3660 n         1 MOL     -0.498123
    143 C46        -7.9970   -1.0310    0.9600 c3        1 MOL      0.125185
    144 C47        -8.1850    0.4710    1.1410 c         1 MOL      0.646740
    145 O19        -7.6730    1.3320    0.3660 o         1 MOL     -0.506969
    146 C48        -6.8440   -1.4690    1.8980 c3        1 MOL     -0.127165
    147 H67        -6.6530   -1.3080   -0.5880 hn        1 MOL      0.164668
    148 H68        -8.9040   -1.5420    1.2720 h1        1 MOL      0.053338
    149 H69        -5.9240   -1.0030    1.5580 hc        1 MOL      0.048508
    150 H70        -6.8850   -1.2010    2.9500 hc        1 MOL      0.048508
    151 H71        -6.6800   -2.5520    1.9740 hc        1 MOL      0.048508
    152 N14        -9.0870    0.7700    2.0980 n         1 MOL     -0.709967
    153 C49        -9.5500    2.0830    2.5280 c3        1 MOL      0.209359
    154 C50       -10.2940    2.9850    1.5100 c         1 MOL      0.363731
    155 O20       -10.5830    4.1710    1.7870 o         1 MOL     -0.509110
    156 C51        -8.4250    2.8800    3.3800 c3        1 MOL      0.171917
    157 C52        -7.8720    2.0760    4.5620 c3        1 MOL     -0.252209
    158 C53        -7.1500    3.0230    5.4580 c         1 MOL      0.701375
    159 O21        -7.6000    3.2970    6.6220 o         1 MOL     -0.683475
    160 O22        -6.0170    3.4560    5.1040 o         1 MOL     -0.683475
    161 H72        -9.5450    0.0160    2.5950 hn        1 MOL      0.339738
    162 H73       -10.3690    1.8470    3.2180 h1        1 MOL      0.044697
    163 H74        -9.0340    3.7020    3.7610 hc        1 MOL     -0.021885
    164 H75        -7.6910    3.2380    2.6620 hc        1 MOL     -0.021885
    165 H76        -7.2310    1.3210    4.1100 hc        1 MOL      0.019054
    166 H77        -8.6950    1.5480    5.0520 hc        1 MOL      0.019054
    167 N15       -10.6280    2.4900    0.3440 n         1 MOL     -0.314206
    168 C54       -10.9860    3.3130   -0.8330 c3        1 MOL     -0.041989
    169 H78       -11.2970    4.3030   -0.5010 h1        1 MOL      0.068698
    170 H79       -10.1210    3.4050   -1.4900 h1        1 MOL      0.068698
    171 H80       -11.8040    2.8370   -1.3740 h1        1 MOL      0.068698
    172 H81       -10.3450    1.5220    0.1990 hn        1 MOL      0.233195
    173 Ca1        -0.5200    0.6310    1.5980 Ca        1 MOL      1.787515
    174 O23         0.1800    3.3870    1.2350 oh        1 MOL     -0.799328
    175 H82         0.1050    4.3230    1.4350 ho        1 MOL      0.395925
    176 H83         1.0380    3.2980    0.8260 ho        1 MOL      0.395925
    177 O24         1.3990    1.1790    3.4710 oh        1 MOL     -0.799328
    178 H84         1.8370    0.8630    4.2640 ho        1 MOL      0.395925
    179 H85         1.5030    2.1230    3.5000 ho        1 MOL      0.395925
    180 O25        -0.2690   -1.1480    3.8710 oh        1 MOL     -0.799328
    181 H86        -0.6330   -1.2590    4.7470 ho        1 MOL      0.395925
    182 H87         0.6490   -0.9200    4.0200 ho        1 MOL      0.395925
    183 O26        -2.4800    2.4240    0.6460 oh        1 MOL     -0.799328
    184 H88        -3.4120    2.3740    0.4930 ho        1 MOL      0.395925
    185 H89        -2.2290    3.3020    0.3540 ho        1 MOL      0.395925
    186 O27        -1.5430    1.6570    3.7870 oh        1 MOL     -0.799328
    187 H90        -2.3860    1.3270    4.1040 ho        1 MOL      0.395925
    188 H91        -1.2040    2.1820    4.5150 ho        1 MOL      0.395925
    189 O28        -3.2640    0.1730    2.1590 oh        1 MOL     -0.799328
    190 H92        -3.9140    0.1870    1.4550 ho        1 MOL      0.395925
    191 H93        -3.6400    0.7060    2.8550 ho        1 MOL      0.395925
@<TRIPOS>BOND
     1    1    2 1   
     2    1    4 1   
     3    1    5 1   
     4    1    6 1   
     5    2    3 2   
     6    2    7 1   
     7    7    8 1   
     8    7   15 1   
     9    8    9 1   
    10    8   11 1   
    11    8   16 1   
    12    9   10 2   
    13    9   19 1   
    14   11   12 1   
    15   11   17 1   
    16   11   18 1   
    17   12   13 1   
    18   12   14 1   
    19   19   20 1   
    20   19   28 1   
    21   20   21 1   
    22   20   23 1   
    23   20   29 1   
    24   21   22 2   
    25   21   41 1   
    26   23   24 1   
    27   23   30 1   
    28   23   31 1   
    29   24   25 1   
    30   24   32 1   
    31   24   33 1   
    32   25   26 1   
    33   25   34 1   
    34   25   35 1   
    35   26   27 1   
    36   26   36 1   
    37   26   37 1   
    38   27   38 1   
    39   27   39 1   
    40   27   40 1   
    41   41   42 1   
    42   41   49 1   
    43   42   43 1   
    44   42   45 1   
    45   42   50 1   
    46   43   44 2   
    47   43   53 1   
    48   45   46 1   
    49   45   51 1   
    50   45   52 1   
    51   46   47 1   
    52   46   48 1   
    53   53   54 1   
    54   53   57 1   
    55   54   55 1   
    56   54   58 1   
    57   54   59 1   
    58   55   56 2   
    59   55   60 1   
    60   60   61 1   
    61   60   68 1   
    62   61   62 1   
    63   61   64 1   
    64   61   69 1   
    65   62   63 2   
    66   62   74 1   
    67   64   65 1   
    68   64   70 1   
    69   64   71 1   
    70   65   66 1   
    71   65   67 2   
    72   66   72 1   
    73   66   73 1   
    74   74   75 1   
    75   74   78 1   
    76   75   76 1   
    77   75   79 1   
    78   75   80 1   
    79   76   77 2   
    80   76   81 1   
    81   81   82 1   
    82   81   93 1   
    83   82   83 1   
    84   82   85 1   
    85   82   94 1   
    86   83   84 2   
    87   83  102 1   
    88   85   86 1   
    89   85   95 1   
    90   85   96 1   
    91   86   87 ar  
    92   86   88 ar  
    93   87   89 ar  
    94   87   97 1   
    95   88   90 ar  
    96   88   98 1   
    97   89   91 ar  
    98   89   99 1   
    99   90   91 ar  
   100   90  100 1   
   101   91   92 1   
   102   92  101 1   
   103  102  103 1   
   104  102  110 1   
   105  103  104 1   
   106  103  106 1   
   107  103  111 1   
   108  104  105 2   
   109  104  121 1   
   110  106  107 1   
   111  106  108 1   
   112  106  112 1   
   113  107  109 1   
   114  107  113 1   
   115  107  114 1   
   116  108  115 1   
   117  108  116 1   
   118  108  117 1   
   119  109  118 1   
   120  109  119 1   
   121  109  120 1   
   122  121  122 1   
   123  121  127 1   
   124  122  123 1   
   125  122  125 1   
   126  122  128 1   
   127  123  124 2   
   128  123  132 1   
   129  125  126 1   
   130  125  129 1   
   131  125  130 1   
   132  126  131 1   
   133  132  133 1   
   134  132  137 1   
   135  133  134 1   
   136  133  136 1   
   137  133  138 1   
   138  134  135 2   
   139  134  142 1   
   140  136  139 1   
   141  136  140 1   
   142  136  141 1   
   143  142  143 1   
   144  142  147 1   
   145  143  144 1   
   146  143  146 1   
   147  143  148 1   
   148  144  145 2   
   149  144  152 1   
   150  146  149 1   
   151  146  150 1   
   152  146  151 1   
   153  152  153 1   
   154  152  161 1   
   155  153  154 1   
   156  153  156 1   
   157  153  162 1   
   158  154  155 2   
   159  154  167 1   
   160  156  157 1   
   161  156  163 1   
   162  156  164 1   
   163  157  158 1   
   164  157  165 1   
   165  157  166 1   
   166  158  159 1   
   167  158  160 1   
   168  167  168 1   
   169  167  172 1   
   170  168  169 1   
   171  168  170 1   
   172  168  171 1   
   173  174  175 1   
   174  174  176 1   
   175  177  178 1   
   176  177  179 1   
   177  180  181 1   
   178  180  182 1   
   179  183  184 1   
   180  183  185 1   
   181  186  187 1   
   182  186  188 1   
   183  189  190 1   
   184  189  191 1   
@<TRIPOS>SUBSTRUCTURE
     1 MOL         1 TEMP              0 ****  ****    0 ROOT
