@<TRIPOS>MOLECULE
MOL
  181   177     1     0     0
SMALL
resp


@<TRIPOS>ATOM
      1 C1          0.3700    6.6040   -2.2830 c3        1 MOL     -0.377851
      2 C2          1.7200    6.7700   -1.5800 c         1 MOL      0.730607
      3 O1          1.7810    7.3990   -0.5320 o         1 MOL     -0.584120
      4 H1         -0.1270    7.5720   -2.3480 hc        1 MOL      0.085188
      5 H2          0.5290    6.2090   -3.2870 hc        1 MOL      0.085188
      6 H3         -0.2540    5.9130   -1.7150 hc        1 MOL      0.085188
      7 N1          2.7760    6.1940   -2.1630 n         1 MOL     -0.609628
      8 C3          4.1060    6.0280   -1.5270 c3        1 MOL      0.207450
      9 C4          4.1030    4.9240   -0.4530 c         1 MOL      0.592377
     10 O2          3.4690    3.8850   -0.6460 o         1 MOL     -0.540014
     11 C5          5.1870    5.7750   -2.5790 c3        1 MOL     -0.329841
     12 C6          6.6550    5.9460   -2.1000 c         1 MOL      0.712921
     13 O3          7.4210    4.9380   -2.0290 o         1 MOL     -0.726544
     14 O4          7.1250    7.0680   -1.7550 o         1 MOL     -0.726544
     15 H4          2.6240    5.6120   -2.9720 hn        1 MOL      0.315508
     16 H5          4.4200    6.9120   -0.9740 h1        1 MOL      0.014843
     17 H6          5.1340    6.4860   -3.4070 hc        1 MOL      0.060862
     18 H7          5.0630    4.7930   -3.0210 hc        1 MOL      0.060862
     19 N2          4.8670    5.1620    0.6460 n         1 MOL     -0.657251
     20 C7          4.9720    4.3040    1.7860 c3        1 MOL      0.611538
     21 C8          3.5940    3.7880    2.3000 c         1 MOL      0.346129
     22 O5          2.6510    4.5450    2.2400 o         1 MOL     -0.544027
     23 C9          5.5720    5.0180    3.0250 c3        1 MOL     -0.401110
     24 H8          5.2090    6.0970    0.7870 hn        1 MOL      0.329022
     25 H9          5.5910    3.4480    1.5490 h1        1 MOL     -0.045306
     26 H10         6.5880    5.3030    2.7280 hc        1 MOL      0.095896
     27 H11         4.9590    5.8550    3.3600 hc        1 MOL      0.095896
     28 H12         5.5750    4.3000    3.8480 hc        1 MOL      0.095896
     29 N3          3.4300    2.6230    2.8890 n         1 MOL     -0.601371
     30 C10         4.5120    1.6350    3.2610 c3        1 MOL      0.524342
     31 C11         4.7290    0.6350    2.2140 c         1 MOL      0.086411
     32 O6          3.7930    0.3560    1.4870 o         1 MOL     -0.226801
     33 C12         4.2040    0.9280    4.5550 c3        1 MOL     -0.459887
     34 C13         2.8480    0.2050    4.5240 c         1 MOL      0.674452
     35 O7          2.4130   -0.2790    5.5860 o         1 MOL     -0.661751
     36 O8          2.0190    0.3400    3.6110 o         1 MOL     -0.661751
     37 H13         2.5650    2.5990    3.4140 hn        1 MOL      0.381529
     38 H14         5.3810    2.2800    3.3790 h1        1 MOL     -0.085131
     39 H15         4.0750    1.7650    5.2450 hc        1 MOL      0.097584
     40 H16         5.0570    0.3620    4.9070 hc        1 MOL      0.097584
     41 N4          5.9290    0.0470    2.2190 n         1 MOL     -0.307081
     42 C14         6.1300   -1.1740    1.4140 c3        1 MOL      0.046898
     43 C15         7.1940   -1.0280    0.3570 c         1 MOL      0.627336
     44 O9          7.8850   -0.0060    0.3920 o         1 MOL     -0.542464
     45 H17         6.6030    0.3990    2.8820 hn        1 MOL      0.268735
     46 H18         5.1830   -1.4490    0.9540 h1        1 MOL      0.029506
     47 H19         6.4820   -1.9840    2.0530 h1        1 MOL      0.029506
     48 N5          7.5180   -1.9600   -0.4860 n         1 MOL     -0.712500
     49 C16         6.8990   -3.2130   -0.7890 c3        1 MOL      0.507493
     50 C17         5.7150   -2.9970   -1.7150 c         1 MOL      0.474976
     51 O10         5.3380   -1.8730   -2.0660 o         1 MOL     -0.433679
     52 C18         8.0540   -4.1410   -1.2390 c3        1 MOL     -0.414193
     53 C19         8.7280   -3.7770   -2.5190 c         1 MOL      0.700117
     54 N6          8.3070   -4.2140   -3.6950 n         1 MOL     -0.788928
     55 O11         9.6250   -2.9550   -2.5300 o         1 MOL     -0.535708
     56 H20         8.2560   -1.7300   -1.1310 hn        1 MOL      0.352427
     57 H21         6.5440   -3.6790    0.1260 h1        1 MOL     -0.026305
     58 H22         7.6840   -5.1440   -1.4390 hc        1 MOL      0.085321
     59 H23         8.8220   -4.1700   -0.4660 hc        1 MOL      0.085321
     60 H24         7.6320   -4.9720   -3.6390 hn        1 MOL      0.372468
     61 H25         8.7370   -3.8780   -4.5420 hn        1 MOL      0.372468
     62 N7          5.0930   -4.1010   -2.1560 n         1 MOL     -0.541503
     63 C20         3.8900   -3.9260   -2.9990 c3        1 MOL     -0.228310
     64 C21         2.5220   -4.2100   -2.4060 c         1 MOL      0.574919
     65 O12         1.4850   -4.1370   -3.0510 o         1 MOL     -0.569245
     66 H26         5.4360   -4.9940   -1.8320 hn        1 MOL      0.297986
     67 H27         3.8370   -4.7120   -3.7550 h1        1 MOL      0.148960
     68 H28         3.9350   -2.9690   -3.5170 h1        1 MOL      0.148960
     69 N8          2.5040   -4.5020   -1.0450 n         1 MOL     -0.326453
     70 C22         1.3070   -5.1210   -0.4370 c3        1 MOL      0.018366
     71 C23         0.2450   -4.0280   -0.3170 c         1 MOL      0.596178
     72 O13         0.5080   -2.9060    0.0630 o         1 MOL     -0.637544
     73 C24         1.6580   -5.6750    0.9110 c3        1 MOL      0.355189
     74 C25         0.3990   -6.3970    1.5140 c3        1 MOL     -0.306685
     75 O14         2.6750   -6.6600    0.8660 oh        1 MOL     -0.719656
     76 H29         3.3820   -4.3890   -0.5570 hn        1 MOL      0.213971
     77 H30         0.9490   -5.9190   -1.0990 h1        1 MOL      0.063258
     78 H31         1.9410   -4.9720    1.7030 h1        1 MOL      0.009346
     79 H32         2.6650   -7.1860    1.6740 ho        1 MOL      0.421112
     80 H33        -0.2470   -5.6830    2.0250 hc        1 MOL      0.078079
     81 H34        -0.1800   -6.8450    0.7070 hc        1 MOL      0.078079
     82 H35         0.7170   -7.1160    2.2770 hc        1 MOL      0.078079
     83 N9         -0.9640   -4.4050   -0.5600 n         1 MOL     -0.300392
     84 C26        -2.1550   -3.6120   -0.7160 c3        1 MOL     -0.138194
     85 C27        -2.8220   -3.5200    0.6610 c         1 MOL      0.555881
     86 O15        -3.1110   -4.5770    1.1820 o         1 MOL     -0.584387
     87 C28        -3.0890   -4.2570   -1.7850 c3        1 MOL      0.042915
     88 C29        -4.4440   -3.5150   -1.9270 c3        1 MOL      0.382787
     89 C30        -2.3470   -4.2590   -3.1600 c3        1 MOL     -0.361965
     90 C31        -5.4910   -4.0920   -2.8090 c3        1 MOL     -0.198404
     91 H36        -1.0730   -5.3410   -0.9050 hn        1 MOL      0.252152
     92 H37        -1.8500   -2.6010   -1.0050 h1        1 MOL      0.163622
     93 H38        -3.4330   -5.2190   -1.3930 hc        1 MOL      0.009909
     94 H39        -4.2910   -2.4730   -2.1980 hc        1 MOL     -0.110396
     95 H40        -4.8970   -3.4250   -0.9340 hc        1 MOL     -0.110396
     96 H41        -2.1920   -3.2260   -3.5020 hc        1 MOL      0.088516
     97 H42        -1.4410   -4.8490   -3.0580 hc        1 MOL      0.088516
     98 H43        -3.0410   -4.5550   -3.9480 hc        1 MOL      0.088516
     99 H44        -5.1700   -4.2590   -3.8470 hc        1 MOL      0.024573
    100 H45        -5.7650   -5.0980   -2.4800 hc        1 MOL      0.024573
    101 H46        -6.3330   -3.4080   -2.9170 hc        1 MOL      0.024573
    102 N10        -3.1940   -2.2900    1.1200 n         1 MOL     -0.141470
    103 C32        -3.8450   -2.1740    2.4090 c3        1 MOL     -0.061708
    104 C33        -5.1410   -1.3540    2.4130 c         1 MOL      0.545638
    105 O16        -5.7900   -1.2250    3.4460 o         1 MOL     -0.554507
    106 C34        -2.7930   -1.5510    3.3580 c3        1 MOL      0.094784
    107 C35        -1.4060   -2.1570    3.5360 c         1 MOL      0.664790
    108 O17        -0.3510   -1.7500    2.9300 o         1 MOL     -0.699560
    109 O18        -1.2300   -3.2280    4.2350 o         1 MOL     -0.699560
    110 H47        -2.7720   -1.5110    0.6310 hn        1 MOL      0.026997
    111 H48        -4.1150   -3.1250    2.8740 h1        1 MOL      0.106421
    112 H49        -3.2510   -1.5510    4.3460 hc        1 MOL     -0.039931
    113 H50        -2.6830   -0.4800    3.1380 hc        1 MOL     -0.039931
    114 N11        -5.5190   -0.7000    1.2870 n         1 MOL     -0.635609
    115 C36        -6.6660    0.1560    1.0640 c3        1 MOL      0.599324
    116 C37        -6.3030    1.3910    0.1500 c         1 MOL      0.055427
    117 O19        -7.0740    1.4650   -0.8610 o         1 MOL     -0.434881
    118 C38        -7.9490   -0.6380    0.7630 c3        1 MOL     -0.409252
    119 C39        -9.2540    0.0890    0.8110 ca        1 MOL      0.190597
    120 C40        -9.5410    1.0240    1.8350 ca        1 MOL     -0.195763
    121 C41       -10.3220   -0.1440   -0.1520 ca        1 MOL     -0.195763
    122 C42       -10.8310    1.6100    1.9300 ca        1 MOL     -0.114785
    123 C43       -11.5530    0.4410    0.0050 ca        1 MOL     -0.114785
    124 C44       -11.7840    1.3250    1.0000 ca        1 MOL     -0.089927
    125 H51        -4.8120   -0.8120    0.5720 hn        1 MOL      0.281390
    126 H52        -6.8350    0.6370    2.0270 h1        1 MOL     -0.033189
    127 H53        -7.9710   -1.4340    1.5160 hc        1 MOL      0.126862
    128 H54        -7.9360   -1.1300   -0.2030 hc        1 MOL      0.126862
    129 H55        -8.7700    1.2730    2.5460 ha        1 MOL      0.125464
    130 H56       -10.0620   -0.6980   -1.0370 ha        1 MOL      0.125464
    131 H57       -11.0670    2.2990    2.7250 ha        1 MOL      0.097069
    132 H58       -12.3830    0.2060   -0.6520 ha        1 MOL      0.097069
    133 H59       -12.7860    1.7280    1.0810 ha        1 MOL      0.078092
    134 N12        -5.2950    2.2710    0.3910 n         1 MOL      0.154281
    135 C45        -5.0770    3.4340   -0.4180 c3        1 MOL     -0.023350
    136 C46        -4.6210    3.1650   -1.8590 c         1 MOL      0.210478
    137 O20        -4.7280    3.9700   -2.7560 o         1 MOL     -0.472829
    138 C47        -4.0580    4.2570    0.4060 c3        1 MOL     -0.064877
    139 C48        -4.1910    3.8600    1.8400 c3        1 MOL     -0.125490
    140 C49        -4.6380    2.4140    1.7230 c3        1 MOL     -0.026048
    141 H60        -6.0480    3.9350   -0.3730 h1        1 MOL      0.061353
    142 H61        -3.0120    4.0290    0.2110 hc        1 MOL      0.071540
    143 H62        -4.1940    5.3080    0.1540 hc        1 MOL      0.071540
    144 H63        -3.2760    4.0030    2.4060 hc        1 MOL      0.047700
    145 H64        -5.0070    4.4630    2.2430 hc        1 MOL      0.047700
    146 H65        -3.7570    1.7640    1.7980 h1        1 MOL      0.057248
    147 H66        -5.3840    2.2530    2.5070 h1        1 MOL      0.057248
    148 N13        -4.1180    1.9590   -2.0310 n         1 MOL      0.060756
    149 C50        -3.7240    1.3810   -3.2960 c3        1 MOL     -0.292467
    150 C51        -5.0160    1.1370   -4.1380 c         1 MOL      0.537126
    151 O21        -4.9510    1.2970   -5.3670 o         1 MOL     -0.572751
    152 C52        -2.8020    0.1870   -3.1860 c3        1 MOL      0.190343
    153 C53        -1.6530    0.4330   -2.2380 c3        1 MOL     -0.292176
    154 C54        -1.9510    0.0850   -0.7960 c         1 MOL      0.522387
    155 O22        -0.9660   -0.1740   -0.0180 o         1 MOL     -0.572106
    156 O23        -3.0870    0.0150   -0.2450 o         1 MOL     -0.572106
    157 H67        -3.8510    1.3250   -1.2890 hn        1 MOL      0.110116
    158 H68        -3.1920    2.1460   -3.8660 h1        1 MOL      0.118514
    159 H69        -2.4260    0.0260   -4.1970 hc        1 MOL     -0.009628
    160 H70        -3.4070   -0.6930   -2.9440 hc        1 MOL     -0.009628
    161 H71        -1.3950    1.4840   -2.3100 hc        1 MOL      0.107444
    162 H72        -0.8130   -0.2050   -2.5240 hc        1 MOL      0.107444
    163 N14        -6.2090    0.8000   -3.6060 n         1 MOL     -0.151089
    164 C55        -7.4430    0.7160   -4.2930 c3        1 MOL     -0.254752
    165 H73        -7.9080    1.7010   -4.3240 h1        1 MOL      0.096885
    166 H74        -7.2700    0.3640   -5.3100 h1        1 MOL      0.096885
    167 H75        -8.1020    0.0210   -3.7740 h1        1 MOL      0.096885
    168 H76        -6.2680    0.8630   -2.6040 hn        1 MOL      0.154796
    169 Ca1         1.1860   -0.6400    1.3660 Ca        1 MOL      1.702755
    170 O24         2.4140   -0.7530   -1.0740 oh        1 MOL     -0.885465
    171 H77         3.0880   -0.3650   -1.6350 ho        1 MOL      0.422820
    172 H78         1.9260   -1.3280   -1.6570 ho        1 MOL      0.422820
    173 O25         2.5640   -2.6790    2.3750 oh        1 MOL     -0.885465
    174 H79         2.0640   -2.8590    3.1790 ho        1 MOL      0.422820
    175 H80         3.3430   -3.2170    2.4510 ho        1 MOL      0.422820
    176 O26         1.6400    1.7120    0.3120 oh        1 MOL     -0.885465
    177 H81         2.4820    2.1540    0.2340 ho        1 MOL      0.422820
    178 H82         1.0410    2.3870    0.6050 ho        1 MOL      0.422820
    179 O27        -0.5760    1.2650    2.4030 oh        1 MOL     -0.885465
    180 H83        -1.4420    1.2300    1.9910 ho        1 MOL      0.422820
    181 H84        -0.5690    2.1130    2.8570 ho        1 MOL      0.422820
@<TRIPOS>BOND
     1    1    2 1   
     2    1    4 1   
     3    1    5 1   
     4    1    6 1   
     5    2    3 2   
     6    2    7 1   
     7    7    8 1   
     8    7   15 1   
     9    8    9 1   
    10    8   11 1   
    11    8   16 1   
    12    9   10 2   
    13    9   19 1   
    14   11   12 1   
    15   11   17 1   
    16   11   18 1   
    17   12   13 1   
    18   12   14 1   
    19   19   20 1   
    20   19   24 1   
    21   20   21 1   
    22   20   23 1   
    23   20   25 1   
    24   21   22 2   
    25   21   29 1   
    26   23   26 1   
    27   23   27 1   
    28   23   28 1   
    29   29   30 1   
    30   29   37 1   
    31   30   31 1   
    32   30   33 1   
    33   30   38 1   
    34   31   32 2   
    35   31   41 1   
    36   33   34 1   
    37   33   39 1   
    38   33   40 1   
    39   34   35 1   
    40   34   36 1   
    41   41   42 1   
    42   41   45 1   
    43   42   43 1   
    44   42   46 1   
    45   42   47 1   
    46   43   44 2   
    47   43   48 1   
    48   48   49 1   
    49   48   56 1   
    50   49   50 1   
    51   49   52 1   
    52   49   57 1   
    53   50   51 2   
    54   50   62 1   
    55   52   53 1   
    56   52   58 1   
    57   52   59 1   
    58   53   54 1   
    59   53   55 2   
    60   54   60 1   
    61   54   61 1   
    62   62   63 1   
    63   62   66 1   
    64   63   64 1   
    65   63   67 1   
    66   63   68 1   
    67   64   65 2   
    68   64   69 1   
    69   69   70 1   
    70   69   76 1   
    71   70   71 1   
    72   70   73 1   
    73   70   77 1   
    74   71   72 2   
    75   71   83 1   
    76   73   74 1   
    77   73   75 1   
    78   73   78 1   
    79   74   80 1   
    80   74   81 1   
    81   74   82 1   
    82   75   79 1   
    83   83   84 1   
    84   83   91 1   
    85   84   85 1   
    86   84   87 1   
    87   84   92 1   
    88   85   86 2   
    89   85  102 1   
    90   87   88 1   
    91   87   89 1   
    92   87   93 1   
    93   88   90 1   
    94   88   94 1   
    95   88   95 1   
    96   89   96 1   
    97   89   97 1   
    98   89   98 1   
    99   90   99 1   
   100   90  100 1   
   101   90  101 1   
   102  102  103 1   
   103  102  110 1   
   104  103  104 1   
   105  103  106 1   
   106  103  111 1   
   107  104  105 2   
   108  104  114 1   
   109  106  107 1   
   110  106  112 1   
   111  106  113 1   
   112  107  108 1   
   113  107  109 1   
   114  114  115 1   
   115  114  125 1   
   116  115  116 1   
   117  115  118 1   
   118  115  126 1   
   119  116  117 2   
   120  116  134 1   
   121  118  119 1   
   122  118  127 1   
   123  118  128 1   
   124  119  120 ar  
   125  119  121 ar  
   126  120  122 ar  
   127  120  129 1   
   128  121  123 ar  
   129  121  130 1   
   130  122  124 ar  
   131  122  131 1   
   132  123  124 ar  
   133  123  132 1   
   134  124  133 1   
   135  134  135 1   
   136  134  140 1   
   137  135  136 1   
   138  135  138 1   
   139  135  141 1   
   140  136  137 2   
   141  136  148 1   
   142  138  139 1   
   143  138  142 1   
   144  138  143 1   
   145  139  140 1   
   146  139  144 1   
   147  139  145 1   
   148  140  146 1   
   149  140  147 1   
   150  148  149 1   
   151  148  157 1   
   152  149  150 1   
   153  149  152 1   
   154  149  158 1   
   155  150  151 2   
   156  150  163 1   
   157  152  153 1   
   158  152  159 1   
   159  152  160 1   
   160  153  154 1   
   161  153  161 1   
   162  153  162 1   
   163  154  155 1   
   164  154  156 1   
   165  163  164 1   
   166  163  168 1   
   167  164  165 1   
   168  164  166 1   
   169  164  167 1   
   170  170  171 1   
   171  170  172 1   
   172  173  174 1   
   173  173  175 1   
   174  176  177 1   
   175  176  178 1   
   176  179  180 1   
   177  179  181 1   
@<TRIPOS>SUBSTRUCTURE
     1 MOL         1 TEMP              0 ****  ****    0 ROOT
