@<TRIPOS>MOLECULE
MOL
  187   181     1     0     0
SMALL
resp


@<TRIPOS>ATOM
      1 C1          9.9300   -4.0670    5.0400 c3        1 MOL     -0.197616
      2 C2          9.3780   -4.4520    3.6060 c         1 MOL      0.599873
      3 O1          9.3400   -5.6240    3.1990 o         1 MOL     -0.568259
      4 H1          9.0970   -3.7830    5.6840 hc        1 MOL      0.055375
      5 H2         10.4480   -4.9230    5.4720 hc        1 MOL      0.055375
      6 H3         10.6220   -3.2300    4.9510 hc        1 MOL      0.055375
      7 N1          9.0110   -3.4460    2.7430 n         1 MOL     -0.510671
      8 C3          9.1820   -1.9770    2.7720 c3        1 MOL      0.159947
      9 C4         10.4350   -1.5440    1.9740 c         1 MOL      0.457268
     10 O2         10.9720   -2.1550    1.0830 o         1 MOL     -0.511307
     11 C5          7.8710   -1.2620    2.3650 c3        1 MOL      0.023162
     12 C6          7.1910   -1.9460    1.1780 c         1 MOL      0.483256
     13 O3          6.1030   -2.5080    1.3210 o         1 MOL     -0.630543
     14 O4          7.7170   -1.9260    0.0690 o         1 MOL     -0.630543
     15 H4          8.7510   -3.7350    1.8120 hn        1 MOL      0.313581
     16 H5          9.3960   -1.7050    3.7990 h1        1 MOL      0.007337
     17 H6          8.1040   -0.2130    2.1570 hc        1 MOL     -0.030686
     18 H7          7.1850   -1.3910    3.2110 hc        1 MOL     -0.030686
     19 N2         11.0610   -0.5480    2.5280 n         1 MOL     -0.369206
     20 C7         12.1770    0.2480    2.0070 c3        1 MOL      0.212390
     21 C8         11.9420    1.0350    0.6990 c         1 MOL      0.465011
     22 O5         12.8730    1.3690   -0.0450 o         1 MOL     -0.500503
     23 C9         13.4560   -0.5500    2.0190 c3        1 MOL     -0.349222
     24 H8         10.5910   -0.1460    3.3280 hn        1 MOL      0.226853
     25 H9         12.3080    1.0270    2.7680 h1        1 MOL      0.016312
     26 H10        14.3260    0.1040    1.9070 hc        1 MOL      0.098474
     27 H11        13.5910   -1.0850    2.9540 hc        1 MOL      0.098474
     28 H12        13.4250   -1.2190    1.1640 hc        1 MOL      0.098474
     29 N3         10.6340    1.3240    0.5100 n         1 MOL     -0.461606
     30 C10        10.0320    2.1530   -0.5680 c3        1 MOL      0.226438
     31 C11         8.6170    2.7180   -0.1580 c         1 MOL      0.288451
     32 O6          7.8400    2.0440    0.5310 o         1 MOL     -0.379109
     33 C12         9.9970    1.4620   -1.9470 c3        1 MOL     -0.029431
     34 C13         9.2670    0.1320   -1.9550 c         1 MOL      0.568795
     35 O7          9.9540   -0.8990   -1.9710 o         1 MOL     -0.661285
     36 O8          8.0550    0.0640   -2.1920 o         1 MOL     -0.661285
     37 H13        10.0120    0.9860    1.2280 hn        1 MOL      0.232474
     38 H14        10.5870    3.0700   -0.7140 h1        1 MOL     -0.024256
     39 H15        11.0160    1.2780   -2.2810 hc        1 MOL      0.021490
     40 H16         9.5310    2.1590   -2.6580 hc        1 MOL      0.021490
     41 N4          8.2290    3.9160   -0.7110 n         1 MOL     -0.281113
     42 C14         6.9390    4.5680   -0.5330 c3        1 MOL     -0.352182
     43 C15         5.7550    3.7350   -1.1680 c         1 MOL      0.568575
     44 O9          5.8060    3.2630   -2.3130 o         1 MOL     -0.459042
     45 H17         8.9650    4.4260   -1.1800 hn        1 MOL      0.283046
     46 H18         6.9590    5.5380   -1.0380 h1        1 MOL      0.156190
     47 H19         6.7640    4.7640    0.5280 h1        1 MOL      0.156190
     48 N5          4.7050    3.5640   -0.3170 n         1 MOL     -0.542181
     49 C16         3.4290    2.8080   -0.5980 c3        1 MOL      0.097425
     50 C17         2.1170    3.4680   -0.1130 c         1 MOL      0.487158
     51 O10         1.0360    3.0580   -0.5570 o         1 MOL     -0.446993
     52 C18         3.5670    1.3150   -0.1390 c3        1 MOL     -0.297124
     53 C19         4.6690    0.5230   -0.8120 c         1 MOL      0.746160
     54 N6          5.8670    0.4190   -0.2830 n         1 MOL     -0.569754
     55 O11         4.3570   -0.1280   -1.8140 o         1 MOL     -0.651890
     56 H20         4.7150    4.0640    0.5580 hn        1 MOL      0.265256
     57 H21         3.3790    2.9270   -1.6790 h1        1 MOL      0.105001
     58 H22         2.6070    0.8250   -0.2900 hc        1 MOL      0.091495
     59 H23         3.7120    1.3800    0.9450 hc        1 MOL      0.091495
     60 H24         6.0810    0.8760    0.5870 hn        1 MOL      0.309865
     61 H25         6.6190    0.0390   -0.8410 hn        1 MOL      0.309865
     62 N7          2.1290    4.3960    0.8860 n         1 MOL     -0.391258
     63 C20         0.8790    4.9270    1.3610 c3        1 MOL     -0.310923
     64 C21         0.1030    5.8560    0.3560 c         1 MOL      0.772480
     65 O12         0.7050    6.5800   -0.4480 o         1 MOL     -0.608242
     66 H26         2.9750    4.7720    1.2900 hn        1 MOL      0.307441
     67 H27         1.1360    5.5520    2.2180 h1        1 MOL      0.133337
     68 H28         0.2800    4.0310    1.5310 h1        1 MOL      0.133337
     69 N8         -1.1380    6.0390    0.6200 n         1 MOL     -0.609587
     70 C22        -2.1220    5.1900    1.2580 c3        1 MOL      0.178561
     71 C23        -2.5580    4.0430    0.3760 c         1 MOL      0.395968
     72 O13        -2.9390    4.1290   -0.8430 o         1 MOL     -0.487907
     73 C24        -3.2970    6.1030    1.6010 c3        1 MOL      0.422217
     74 C25        -4.4090    5.4560    2.4170 c3        1 MOL     -0.218814
     75 O14        -2.9720    7.2360    2.4140 oh        1 MOL     -0.686048
     76 H29        -1.5160    6.8210    0.0960 hn        1 MOL      0.300342
     77 H30        -1.6860    4.8020    2.1760 h1        1 MOL      0.051195
     78 H31        -3.7980    6.4730    0.7040 h1        1 MOL     -0.028192
     79 H32        -3.7290    7.8300    2.3790 ho        1 MOL      0.399576
     80 H33        -5.1500    6.1760    2.7790 hc        1 MOL      0.048196
     81 H34        -4.9240    4.6880    1.8410 hc        1 MOL      0.048196
     82 H35        -3.8410    4.9890    3.2250 hc        1 MOL      0.048196
     83 N9         -2.5060    2.8600    1.0270 n         1 MOL     -0.311691
     84 C26        -3.4920    1.8090    0.6840 c3        1 MOL     -0.008975
     85 C27        -4.5790    1.8150    1.7770 c         1 MOL      0.494067
     86 O15        -4.2110    1.7270    2.9330 o         1 MOL     -0.570356
     87 C28        -2.7490    0.4570    0.4530 c3        1 MOL      0.098212
     88 C29        -1.9230    0.6080   -0.8110 c3        1 MOL      0.028952
     89 C30        -3.7080   -0.6690    0.2880 c3        1 MOL     -0.277595
     90 C31        -0.9580   -0.6410   -1.0630 c3        1 MOL     -0.300060
     91 H36        -2.1460    2.8150    1.9690 hn        1 MOL      0.218901
     92 H37        -3.9110    1.9370   -0.3160 h1        1 MOL      0.076152
     93 H38        -2.0750    0.4220    1.3120 hc        1 MOL      0.002388
     94 H39        -1.2840    1.4850   -0.7140 hc        1 MOL      0.031631
     95 H40        -2.5380    0.7030   -1.7060 hc        1 MOL      0.031631
     96 H41        -3.1500   -1.5940    0.2190 hc        1 MOL      0.085175
     97 H42        -4.5030   -0.6590    1.0390 hc        1 MOL      0.085175
     98 H43        -4.1620   -0.6300   -0.7000 hc        1 MOL      0.085175
     99 H44        -0.2540   -0.4090   -1.8610 hc        1 MOL      0.069990
    100 H45        -0.3730   -0.7410   -0.1480 hc        1 MOL      0.069990
    101 H46        -1.5370   -1.5140   -1.3300 hc        1 MOL      0.069990
    102 N10        -5.8180    2.0670    1.4470 n         1 MOL     -0.347304
    103 C32        -6.4960    1.9090    0.0890 c3        1 MOL      0.153620
    104 C33        -7.9450    1.4070    0.1830 c         1 MOL      0.564162
    105 O16        -8.6450    1.7490    1.1570 o         1 MOL     -0.565018
    106 C34        -6.4910    3.2680   -0.5890 c3        1 MOL     -0.209470
    107 C35        -7.0040    3.2610   -2.0390 c         1 MOL      0.752660
    108 O17        -7.3000    4.3350   -2.5600 o         1 MOL     -0.728761
    109 O18        -7.1020    2.1930   -2.6880 o         1 MOL     -0.728761
    110 H47        -6.4170    2.2430    2.2380 hn        1 MOL      0.259642
    111 H48        -5.9590    1.1700   -0.5110 h1        1 MOL     -0.007267
    112 H49        -5.4740    3.6410   -0.5290 hc        1 MOL      0.030132
    113 H50        -7.0210    4.0200   -0.0080 hc        1 MOL      0.030132
    114 N11        -8.4200    0.7010   -0.8260 n         1 MOL     -0.698787
    115 C36        -9.7440    0.0200   -0.8630 c3        1 MOL      0.623914
    116 C37        -9.7680   -0.9610   -2.0140 c         1 MOL      0.105863
    117 O19        -9.2500   -0.6190   -3.1040 o         1 MOL     -0.451246
    118 C38       -10.8020    1.0760   -1.0960 c3        1 MOL     -0.032232
    119 C39       -12.2030    0.5920   -0.7930 ca        1 MOL     -0.054116
    120 C40       -13.2190    0.1330   -1.7500 ca        1 MOL     -0.101587
    121 C41       -12.4610    0.5140    0.5710 ca        1 MOL     -0.101587
    122 C42       -14.4000   -0.4230   -1.2570 ca        1 MOL     -0.113475
    123 C43       -13.6430   -0.0120    1.0320 ca        1 MOL     -0.113475
    124 C44       -14.6290   -0.4840    0.1410 ca        1 MOL     -0.189114
    125 H51        -7.8490    0.5900   -1.6550 hn        1 MOL      0.336985
    126 H52        -9.8920   -0.4300    0.1130 h1        1 MOL      0.030012
    127 H53       -10.8180    1.2080   -2.1760 hc        1 MOL      0.035645
    128 H54       -10.5950    2.0260   -0.5980 hc        1 MOL      0.035645
    129 H55       -13.1780    0.1870   -2.8250 ha        1 MOL      0.106460
    130 H56       -11.6930    0.7290    1.2930 ha        1 MOL      0.106460
    131 H57       -15.0990   -0.8010   -1.9880 ha        1 MOL      0.104462
    132 H58       -13.7530   -0.0500    2.1040 ha        1 MOL      0.104462
    133 H59       -15.5660   -0.7910    0.5720 ha        1 MOL      0.107038
    134 N12       -10.3600   -2.1610   -1.8880 n         1 MOL      0.024576
    135 C45       -11.0040   -2.7870   -0.7070 c3        1 MOL     -0.226100
    136 C46       -10.0350   -3.3210    0.3470 c         1 MOL      0.565802
    137 O20       -10.4600   -3.3570    1.4940 o         1 MOL     -0.513894
    138 C47       -11.7940   -3.9990   -1.1870 c3        1 MOL     -0.008293
    139 C48       -11.0200   -4.4640   -2.4290 c3        1 MOL     -0.077978
    140 C49       -10.4520   -3.1140   -3.0140 c3        1 MOL     -0.092872
    141 H60       -11.6710   -2.1140   -0.1720 h1        1 MOL      0.116199
    142 H61       -11.8330   -4.7660   -0.4040 hc        1 MOL      0.033446
    143 H62       -12.8220   -3.7770   -1.4790 hc        1 MOL      0.033446
    144 H63       -10.1300   -5.0530   -2.2030 hc        1 MOL      0.038247
    145 H64       -11.7180   -4.9010   -3.1340 hc        1 MOL      0.038247
    146 H65        -9.4790   -3.2230   -3.4950 h1        1 MOL      0.062708
    147 H66       -11.1390   -2.6370   -3.7130 h1        1 MOL      0.062708
    148 N13        -8.7820   -3.6830   -0.0170 n         1 MOL     -0.563809
    149 C50        -7.7970   -4.0950    0.9620 c3        1 MOL      0.340637
    150 C51        -7.1030   -5.3330    0.3990 c         1 MOL      0.423241
    151 O21        -7.1450   -5.4920   -0.8280 o         1 MOL     -0.587973
    152 C52        -6.8270   -2.9100    1.2870 c3        1 MOL     -0.155006
    153 C53        -7.4620   -1.7090    1.9510 c3        1 MOL      0.063120
    154 C54        -7.7630   -1.9730    3.4130 c         1 MOL      0.662589
    155 O22        -7.6850   -0.9880    4.2210 o         1 MOL     -0.713616
    156 O23        -8.0030   -3.1790    3.7940 o         1 MOL     -0.713616
    157 H67        -8.4620   -3.6530   -0.9680 hn        1 MOL      0.342082
    158 H68        -8.2730   -4.4200    1.8800 h1        1 MOL      0.052683
    159 H69        -6.4070   -2.5430    0.3510 hc        1 MOL      0.007818
    160 H70        -5.9840   -3.2500    1.8760 hc        1 MOL      0.007818
    161 H71        -8.3870   -1.5400    1.4140 hc        1 MOL     -0.050037
    162 H72        -6.8750   -0.8100    1.7620 hc        1 MOL     -0.050037
    163 N14        -6.5240   -6.2670    1.1480 n         1 MOL     -0.415885
    164 C55        -6.3730   -6.2200    2.6360 c3        1 MOL     -0.058079
    165 H73        -7.1730   -5.6160    3.0620 h1        1 MOL      0.058244
    166 H74        -6.4270   -7.2320    3.0390 h1        1 MOL      0.058244
    167 H75        -5.4100   -5.7780    2.8890 h1        1 MOL      0.058244
    168 H76        -5.9960   -7.0170    0.7360 hn        1 MOL      0.285186
    169 Ca1         7.9300   -2.5460   -2.3800 Ca        1 MOL      1.749501
    170 O24        10.1960   -3.4460   -3.4980 oh        1 MOL     -0.842682
    171 H77        11.1140   -3.6520   -3.3310 ho        1 MOL      0.414140
    172 H78        10.1680   -3.2420   -4.4320 ho        1 MOL      0.414140
    173 O25         6.7930   -4.7960   -0.9790 oh        1 MOL     -0.842682
    174 H79         7.2410   -4.9860   -0.1630 ho        1 MOL      0.414140
    175 H80         6.1090   -5.4640   -1.0400 ho        1 MOL      0.414140
    176 O26         5.5420   -1.9230   -3.1680 oh        1 MOL     -0.842682
    177 H81         5.1200   -2.1750   -3.9830 ho        1 MOL      0.414140
    178 H82         4.9130   -1.3400   -2.7350 ho        1 MOL      0.414140
    179 O27         9.5400   -3.7880   -0.7080 oh        1 MOL     -0.842682
    180 H83        10.0960   -3.0660   -0.4220 ho        1 MOL      0.414140
    181 H84         9.9070   -4.5590   -0.2810 ho        1 MOL      0.414140
    182 O28         8.1020   -1.3730   -4.8730 oh        1 MOL     -0.842682
    183 H85         8.6110   -1.6680   -5.6350 ho        1 MOL      0.414140
    184 H86         7.9320   -0.4450   -5.0460 ho        1 MOL      0.414140
    185 O29         7.4920   -4.3740   -4.1510 oh        1 MOL     -0.842682
    186 H87         6.7330   -4.9260   -3.9290 ho        1 MOL      0.414140
    187 H88         7.8370   -4.7650   -4.9540 ho        1 MOL      0.414140
@<TRIPOS>BOND
     1    1    2 1   
     2    1    4 1   
     3    1    5 1   
     4    1    6 1   
     5    2    3 2   
     6    2    7 1   
     7    7    8 1   
     8    7   15 1   
     9    8    9 1   
    10    8   11 1   
    11    8   16 1   
    12    9   10 2   
    13    9   19 1   
    14   11   12 1   
    15   11   17 1   
    16   11   18 1   
    17   12   13 1   
    18   12   14 1   
    19   19   20 1   
    20   19   24 1   
    21   20   21 1   
    22   20   23 1   
    23   20   25 1   
    24   21   22 2   
    25   21   29 1   
    26   23   26 1   
    27   23   27 1   
    28   23   28 1   
    29   29   30 1   
    30   29   37 1   
    31   30   31 1   
    32   30   33 1   
    33   30   38 1   
    34   31   32 2   
    35   31   41 1   
    36   33   34 1   
    37   33   39 1   
    38   33   40 1   
    39   34   35 1   
    40   34   36 1   
    41   41   42 1   
    42   41   45 1   
    43   42   43 1   
    44   42   46 1   
    45   42   47 1   
    46   43   44 2   
    47   43   48 1   
    48   48   49 1   
    49   48   56 1   
    50   49   50 1   
    51   49   52 1   
    52   49   57 1   
    53   50   51 2   
    54   50   62 1   
    55   52   53 1   
    56   52   58 1   
    57   52   59 1   
    58   53   54 1   
    59   53   55 2   
    60   54   60 1   
    61   54   61 1   
    62   62   63 1   
    63   62   66 1   
    64   63   64 1   
    65   63   67 1   
    66   63   68 1   
    67   64   65 2   
    68   64   69 1   
    69   69   70 1   
    70   69   76 1   
    71   70   71 1   
    72   70   73 1   
    73   70   77 1   
    74   71   72 2   
    75   71   83 1   
    76   73   74 1   
    77   73   75 1   
    78   73   78 1   
    79   74   80 1   
    80   74   81 1   
    81   74   82 1   
    82   75   79 1   
    83   83   84 1   
    84   83   91 1   
    85   84   85 1   
    86   84   87 1   
    87   84   92 1   
    88   85   86 2   
    89   85  102 1   
    90   87   88 1   
    91   87   89 1   
    92   87   93 1   
    93   88   90 1   
    94   88   94 1   
    95   88   95 1   
    96   89   96 1   
    97   89   97 1   
    98   89   98 1   
    99   90   99 1   
   100   90  100 1   
   101   90  101 1   
   102  102  103 1   
   103  102  110 1   
   104  103  104 1   
   105  103  106 1   
   106  103  111 1   
   107  104  105 2   
   108  104  114 1   
   109  106  107 1   
   110  106  112 1   
   111  106  113 1   
   112  107  108 1   
   113  107  109 1   
   114  114  115 1   
   115  114  125 1   
   116  115  116 1   
   117  115  118 1   
   118  115  126 1   
   119  116  117 2   
   120  116  134 1   
   121  118  119 1   
   122  118  127 1   
   123  118  128 1   
   124  119  120 ar  
   125  119  121 ar  
   126  120  122 ar  
   127  120  129 1   
   128  121  123 ar  
   129  121  130 1   
   130  122  124 ar  
   131  122  131 1   
   132  123  124 ar  
   133  123  132 1   
   134  124  133 1   
   135  134  135 1   
   136  134  140 1   
   137  135  136 1   
   138  135  138 1   
   139  135  141 1   
   140  136  137 2   
   141  136  148 1   
   142  138  139 1   
   143  138  142 1   
   144  138  143 1   
   145  139  140 1   
   146  139  144 1   
   147  139  145 1   
   148  140  146 1   
   149  140  147 1   
   150  148  149 1   
   151  148  157 1   
   152  149  150 1   
   153  149  152 1   
   154  149  158 1   
   155  150  151 2   
   156  150  163 1   
   157  152  153 1   
   158  152  159 1   
   159  152  160 1   
   160  153  154 1   
   161  153  161 1   
   162  153  162 1   
   163  154  155 1   
   164  154  156 1   
   165  163  164 1   
   166  163  168 1   
   167  164  165 1   
   168  164  166 1   
   169  164  167 1   
   170  170  171 1   
   171  170  172 1   
   172  173  174 1   
   173  173  175 1   
   174  176  177 1   
   175  176  178 1   
   176  179  180 1   
   177  179  181 1   
   178  182  183 1   
   179  182  184 1   
   180  185  186 1   
   181  185  187 1   
@<TRIPOS>SUBSTRUCTURE
     1 MOL         1 TEMP              0 ****  ****    0 ROOT
