@<TRIPOS>MOLECULE
MOL
  191   184     1     0     0
SMALL
resp


@<TRIPOS>ATOM
      1 C1         -6.4760    2.2920   -2.8040 c3        1 MOL     -0.442770
      2 C2         -7.2450    2.2370   -1.5350 c         1 MOL      0.661937
      3 O1         -6.6570    2.1920   -0.5260 o         1 MOL     -0.568356
      4 H1         -7.1450    2.0920   -3.6410 hc        1 MOL      0.099129
      5 H2         -6.0370    3.2830   -2.9200 hc        1 MOL      0.099129
      6 H3         -5.6860    1.5430   -2.7840 hc        1 MOL      0.099129
      7 N1         -8.5190    2.0920   -1.6150 n         1 MOL     -0.542499
      8 C3         -9.5160    1.7880   -0.5090 c3        1 MOL      0.440010
      9 C4         -9.2240    0.4410    0.1600 c         1 MOL      0.245963
     10 O2         -9.5390    0.2450    1.3370 o         1 MOL     -0.427484
     11 C5         -9.6860    2.9670    0.3920 c3        1 MOL     -0.342500
     12 C6        -11.0890    3.0170    0.9990 c         1 MOL      0.713382
     13 O3        -11.9770    2.2820    0.4980 o         1 MOL     -0.683116
     14 O4        -11.2920    3.7180    1.9920 o         1 MOL     -0.683116
     15 H4         -8.9390    2.3910   -2.4800 hn        1 MOL      0.287832
     16 H5        -10.4630    1.6710   -1.0350 h1        1 MOL     -0.114296
     17 H6         -9.5650    3.8470   -0.2420 hc        1 MOL      0.098064
     18 H7         -8.9390    2.8310    1.1780 hc        1 MOL      0.098064
     19 N2         -8.6920   -0.4950   -0.6170 n         1 MOL     -0.317916
     20 C7         -8.5870   -1.9820   -0.2780 c3        1 MOL     -0.008528
     21 C8         -7.0810   -2.3630   -0.3760 c         1 MOL      0.672400
     22 O5         -6.7150   -3.4730   -0.7220 o         1 MOL     -0.608959
     23 C9         -9.4850   -2.8010   -1.1350 c3        1 MOL      0.076379
     24 C10       -10.9450   -2.2540   -1.2720 c3        1 MOL      0.019961
     25 C11       -11.7230   -3.0660   -2.3030 c3        1 MOL     -0.260861
     26 C12       -13.1560   -2.7370   -2.3080 c3        1 MOL      0.007416
     27 N3        -13.5100   -1.3910   -2.6250 n4        1 MOL     -0.298607
     28 H8         -8.5120   -0.2400   -1.5810 hn        1 MOL      0.171556
     29 H9         -8.8980   -2.1320    0.7490 h1        1 MOL      0.084152
     30 H10        -9.4830   -3.7900   -0.6820 hc        1 MOL      0.013210
     31 H11        -9.0580   -3.0270   -2.1120 hc        1 MOL      0.013210
     32 H12       -11.0340   -1.2260   -1.6060 hc        1 MOL      0.055872
     33 H13       -11.4040   -2.3400   -0.2830 hc        1 MOL      0.055872
     34 H14       -11.6200   -4.1380   -2.1150 hc        1 MOL      0.083591
     35 H15       -11.3120   -2.8820   -3.2970 hc        1 MOL      0.083591
     36 H16       -13.6420   -3.0330   -1.3820 hx        1 MOL      0.107286
     37 H17       -13.7670   -3.3640   -2.9710 hx        1 MOL      0.107286
     38 H18       -13.3700   -0.7490   -1.8600 hn        1 MOL      0.279322
     39 H19       -12.9380   -1.0610   -3.3980 hn        1 MOL      0.279322
     40 H20       -14.4890   -1.3460   -2.8470 hn        1 MOL      0.279322
     41 N4         -6.1590   -1.4250   -0.1340 n         1 MOL     -0.570400
     42 C13        -4.6890   -1.6810   -0.0970 c3        1 MOL      0.000156
     43 C14        -4.1270   -2.3670    1.2230 c         1 MOL      0.496552
     44 O6         -4.5640   -1.9500    2.3270 o         1 MOL     -0.476454
     45 C15        -3.9830   -0.3610   -0.3350 c3        1 MOL     -0.142831
     46 C16        -2.4600   -0.5470   -0.5150 c         1 MOL      0.491704
     47 O7         -1.9040   -0.4600   -1.6520 o         1 MOL     -0.701045
     48 O8         -1.7710   -0.7730    0.5190 o         1 MOL     -0.701045
     49 H21        -6.5090   -0.5160    0.1420 hn        1 MOL      0.357202
     50 H22        -4.3970   -2.2930   -0.9590 h1        1 MOL      0.093163
     51 H23        -4.2070    0.3550    0.4470 hc        1 MOL      0.114960
     52 H24        -4.4140    0.0580   -1.2390 hc        1 MOL      0.114960
     53 N5         -3.3350   -3.4640    1.1780 n         1 MOL     -0.233453
     54 C17        -2.8790   -4.1360    2.3910 c3        1 MOL     -0.187334
     55 C18        -1.9070   -3.4270    3.3210 c         1 MOL      0.516069
     56 O9         -1.9860   -3.7510    4.4910 o         1 MOL     -0.532436
     57 H25        -3.1930   -3.9720    0.3160 hn        1 MOL      0.233782
     58 H26        -2.4120   -5.0740    2.0640 h1        1 MOL      0.114488
     59 H27        -3.7830   -4.4180    2.9280 h1        1 MOL      0.114488
     60 N6         -1.1180   -2.4330    2.9190 n         1 MOL     -0.243208
     61 C19        -0.4370   -1.4420    3.7410 c3        1 MOL     -0.073437
     62 C20        -1.1630   -0.0620    3.8050 c         1 MOL      0.513635
     63 O10        -0.5410    0.9310    4.1860 o         1 MOL     -0.514184
     64 C21         1.0510   -1.3600    3.4100 c3        1 MOL     -0.183434
     65 C22         1.7280   -2.7260    3.3980 c         1 MOL      0.618014
     66 N7          1.7890   -3.4700    4.5050 n         1 MOL     -0.762422
     67 O11         2.2720   -3.1120    2.4030 o         1 MOL     -0.570337
     68 H28        -1.1830   -2.1670    1.9460 hn        1 MOL      0.103923
     69 H29        -0.4720   -1.8210    4.7580 h1        1 MOL      0.102455
     70 H30         1.6380   -0.7070    4.0420 hc        1 MOL      0.126269
     71 H31         1.0750   -0.9420    2.3990 hc        1 MOL      0.126269
     72 H32         1.5070   -3.2010    5.4330 hn        1 MOL      0.379443
     73 H33         2.2540   -4.3540    4.3520 hn        1 MOL      0.379443
     74 N8         -2.4820    0.0500    3.4160 n         1 MOL     -0.366486
     75 C23        -3.0360    1.4320    3.1950 c3        1 MOL     -0.153180
     76 C24        -2.2820    2.3450    2.2760 c         1 MOL      0.567862
     77 O12        -2.5770    3.4960    2.2640 o         1 MOL     -0.548958
     78 H34        -2.9900   -0.7540    3.1010 hn        1 MOL      0.275007
     79 H35        -3.2480    2.0360    4.0870 h1        1 MOL      0.123659
     80 H36        -3.9910    1.3290    2.6960 h1        1 MOL      0.123659
     81 N9         -1.4760    1.8160    1.3560 n         1 MOL     -0.286069
     82 C25        -0.5770    2.6130    0.5080 c3        1 MOL      0.000876
     83 C26         0.6930    1.8620   -0.0930 c         1 MOL      0.352686
     84 O13         0.7640    0.6560   -0.2590 o         1 MOL     -0.440274
     85 C27        -1.4570    3.1020   -0.6220 c3        1 MOL     -0.386534
     86 C28        -0.5750    3.8870   -1.7130 ca        1 MOL     -0.059980
     87 C29        -0.1210    5.2300   -1.5530 ca        1 MOL     -0.036299
     88 C30        -0.4080    3.2630   -2.9630 ca        1 MOL     -0.036299
     89 C31         0.5520    5.8620   -2.6530 ca        1 MOL     -0.374651
     90 C32         0.1410    3.9390   -4.0840 ca        1 MOL     -0.374651
     91 C33         0.7070    5.2340   -3.8900 ca        1 MOL      0.454734
     92 O14         1.2550    5.9200   -4.8840 oh        1 MOL     -0.483750
     93 H37        -1.3940    0.8070    1.3670 hn        1 MOL      0.241984
     94 H38        -0.2050    3.4740    1.0580 h1        1 MOL      0.090404
     95 H39        -2.1060    3.8890   -0.2310 hc        1 MOL      0.201805
     96 H40        -1.9460    2.2340   -1.0740 hc        1 MOL      0.201805
     97 H41        -0.1940    5.6910   -0.5780 ha        1 MOL      0.128065
     98 H42        -0.9420    2.3290   -3.1030 ha        1 MOL      0.128065
     99 H43         1.0500    6.8170   -2.5630 ha        1 MOL      0.157972
    100 H44         0.0860    3.4560   -5.0510 ha        1 MOL      0.157972
    101 H45         1.0510    5.5150   -5.7330 ho        1 MOL      0.369791
    102 N10         1.7430    2.6300   -0.3540 n         1 MOL     -0.275498
    103 C34         3.0320    2.0610   -0.5210 c3        1 MOL      0.011877
    104 C35         3.4070    1.3160    0.7600 c         1 MOL      0.247384
    105 O15         3.8840    0.1480    0.7340 o         1 MOL     -0.447577
    106 C36         4.0610    3.1180   -0.9000 c3        1 MOL      0.011460
    107 C37         3.7230    3.9380   -2.1170 c3        1 MOL      0.134497
    108 C38         5.3830    2.3090   -1.2950 c3        1 MOL     -0.904840
    109 C39         3.3330    3.1300   -3.3830 c3        1 MOL      0.067043
    110 H46         1.7610    3.6370   -0.2620 hn        1 MOL      0.237216
    111 H47         3.0350    1.2390   -1.2330 h1        1 MOL      0.163569
    112 H48         4.2850    3.7380   -0.0340 hc        1 MOL      0.008853
    113 H49         4.5070    4.6720   -2.3240 hc        1 MOL     -0.007322
    114 H50         2.7960    4.4430   -1.8390 hc        1 MOL     -0.007322
    115 H51         6.1340    3.0860   -1.4200 hc        1 MOL      0.250471
    116 H52         5.5480    1.6240   -0.4590 hc        1 MOL      0.250471
    117 H53         5.2750    1.8200   -2.2570 hc        1 MOL      0.250471
    118 H54         3.0440    3.8180   -4.1790 hc        1 MOL     -0.033953
    119 H55         4.0770    2.4410   -3.7770 hc        1 MOL     -0.033953
    120 H56         2.5110    2.4550   -3.1650 hc        1 MOL     -0.033953
    121 N11         3.3730    2.0130    1.9160 n         1 MOL     -0.099087
    122 C40         3.7920    1.4490    3.1520 c3        1 MOL      0.024139
    123 C41         5.3120    1.3310    3.2800 c         1 MOL      0.332349
    124 O16         5.8040    0.3880    3.8870 o         1 MOL     -0.469741
    125 C42         3.3560    2.4010    4.3060 c3        1 MOL      0.122630
    126 O17         2.1520    3.0290    4.1170 oh        1 MOL     -0.625024
    127 H57         2.9680    2.9280    2.0200 hn        1 MOL      0.212738
    128 H58         3.2780    0.4910    3.2260 h1        1 MOL      0.040553
    129 H59         4.1850    3.1030    4.4130 h1        1 MOL      0.039351
    130 H60         3.2740    1.8580    5.2520 h1        1 MOL      0.039351
    131 H61         1.8110    3.2560    4.9900 ho        1 MOL      0.446940
    132 N12         6.0970    2.2810    2.6700 n         1 MOL     -0.353398
    133 C43         7.5410    2.4270    2.9540 c3        1 MOL      0.101176
    134 C44         8.4850    1.2660    2.4590 c         1 MOL      0.551973
    135 O18         9.6710    1.3880    2.5660 o         1 MOL     -0.541302
    136 C45         7.7050    2.7830    4.4660 c3        1 MOL     -0.279957
    137 H62         5.5920    3.0640    2.2820 hn        1 MOL      0.269397
    138 H63         7.8950    3.3060    2.4240 h1        1 MOL      0.054900
    139 H64         6.9870    3.5270    4.7710 hc        1 MOL      0.091400
    140 H65         7.6820    1.8850    5.0890 hc        1 MOL      0.091400
    141 H66         8.7100    3.1850    4.5770 hc        1 MOL      0.091400
    142 N13         7.9730    0.2350    1.8480 n         1 MOL     -0.578852
    143 C46         8.6460   -0.9140    1.2260 c3        1 MOL      0.492464
    144 C47         8.7480   -0.9220   -0.2850 c         1 MOL      0.445711
    145 O19         7.9430   -0.2720   -0.9220 o         1 MOL     -0.442567
    146 C48         7.8970   -2.1070    1.8380 c3        1 MOL     -0.379996
    147 H67         6.9710    0.0790    1.8190 hn        1 MOL      0.311899
    148 H68         9.6830   -0.9650    1.5450 h1        1 MOL     -0.029016
    149 H69         6.8190   -1.9810    1.7730 hc        1 MOL      0.098296
    150 H70         8.0580   -3.0620    1.3220 hc        1 MOL      0.098296
    151 H71         8.2500   -2.1860    2.8660 hc        1 MOL      0.098296
    152 N14         9.6650   -1.7710   -0.8750 n         1 MOL     -0.678385
    153 C49         9.7660   -1.8720   -2.3700 c3        1 MOL      0.231378
    154 C50        10.0850   -0.4660   -3.0720 c         1 MOL      0.327408
    155 O20         9.8110   -0.2890   -4.2660 o         1 MOL     -0.467257
    156 C51         8.6670   -2.7100   -3.1290 c3        1 MOL      0.089780
    157 C52         8.6160   -4.1730   -2.5620 c3        1 MOL     -0.022930
    158 C53         7.5950   -5.0140   -3.2060 c         1 MOL      0.562353
    159 O21         6.6390   -5.5430   -2.5190 o         1 MOL     -0.658158
    160 O22         7.5580   -5.1510   -4.5020 o         1 MOL     -0.658158
    161 H72        10.0620   -2.5640   -0.3890 hn        1 MOL      0.323917
    162 H73        10.7160   -2.3990   -2.5310 h1        1 MOL      0.010896
    163 H74         8.9710   -2.7650   -4.1680 hc        1 MOL     -0.010881
    164 H75         7.7780   -2.0960   -2.9640 hc        1 MOL     -0.010881
    165 H76         8.3980   -4.1400   -1.4980 hc        1 MOL     -0.018124
    166 H77         9.5670   -4.6900   -2.6740 hc        1 MOL     -0.018124
    167 N15        10.6750    0.4800   -2.3010 n         1 MOL     -0.258868
    168 C54        10.9230    1.8490   -2.6360 c3        1 MOL     -0.069108
    169 H78        11.7560    2.2230   -2.0410 h1        1 MOL      0.061503
    170 H79        11.1710    1.9250   -3.6950 h1        1 MOL      0.061503
    171 H80        10.0330    2.4420   -2.4280 h1        1 MOL      0.061503
    172 H81        10.9440    0.2520   -1.3570 hn        1 MOL      0.228938
    173 Ca1         0.2240   -1.7860   -1.4010 Ca        1 MOL      1.838008
    174 O23         2.2090   -0.6210   -2.7150 oh        1 MOL     -0.865108
    175 H82         3.1290   -0.8990   -2.6520 ho        1 MOL      0.421014
    176 H83         2.2020    0.0060   -3.4410 ho        1 MOL      0.421014
    177 O24         1.6390   -3.7400   -2.6080 oh        1 MOL     -0.865108
    178 H84         1.3890   -4.4410   -3.2110 ho        1 MOL      0.421014
    179 H85         2.4790   -4.0150   -2.2480 ho        1 MOL      0.421014
    180 O25        -0.2810   -1.5850   -4.0420 oh        1 MOL     -0.865108
    181 H86        -0.4750   -2.3090   -4.6400 ho        1 MOL      0.421014
    182 H87         0.1740   -0.9360   -4.5810 ho        1 MOL      0.421014
    183 O26         0.1740   -3.7130    0.3670 oh        1 MOL     -0.865108
    184 H88         0.9930   -3.7540    0.8700 ho        1 MOL      0.421014
    185 H89        -0.2700   -4.5350    0.5650 ho        1 MOL      0.421014
    186 O27        -1.9830   -3.5680   -1.6920 oh        1 MOL     -0.865108
    187 H90        -1.4880   -3.9120   -2.4400 ho        1 MOL      0.421014
    188 H91        -2.8650   -3.9250   -1.8090 ho        1 MOL      0.421014
    189 O28         2.4220   -1.9340   -0.0480 oh        1 MOL     -0.865108
    190 H92         2.6110   -2.0240    0.8870 ho        1 MOL      0.421014
    191 H93         3.1160   -1.3820   -0.3900 ho        1 MOL      0.421014
@<TRIPOS>BOND
     1    1    2 1   
     2    1    4 1   
     3    1    5 1   
     4    1    6 1   
     5    2    3 2   
     6    2    7 1   
     7    7    8 1   
     8    7   15 1   
     9    8    9 1   
    10    8   11 1   
    11    8   16 1   
    12    9   10 2   
    13    9   19 1   
    14   11   12 1   
    15   11   17 1   
    16   11   18 1   
    17   12   13 1   
    18   12   14 1   
    19   19   20 1   
    20   19   28 1   
    21   20   21 1   
    22   20   23 1   
    23   20   29 1   
    24   21   22 2   
    25   21   41 1   
    26   23   24 1   
    27   23   30 1   
    28   23   31 1   
    29   24   25 1   
    30   24   32 1   
    31   24   33 1   
    32   25   26 1   
    33   25   34 1   
    34   25   35 1   
    35   26   27 1   
    36   26   36 1   
    37   26   37 1   
    38   27   38 1   
    39   27   39 1   
    40   27   40 1   
    41   41   42 1   
    42   41   49 1   
    43   42   43 1   
    44   42   45 1   
    45   42   50 1   
    46   43   44 2   
    47   43   53 1   
    48   45   46 1   
    49   45   51 1   
    50   45   52 1   
    51   46   47 1   
    52   46   48 1   
    53   53   54 1   
    54   53   57 1   
    55   54   55 1   
    56   54   58 1   
    57   54   59 1   
    58   55   56 2   
    59   55   60 1   
    60   60   61 1   
    61   60   68 1   
    62   61   62 1   
    63   61   64 1   
    64   61   69 1   
    65   62   63 2   
    66   62   74 1   
    67   64   65 1   
    68   64   70 1   
    69   64   71 1   
    70   65   66 1   
    71   65   67 2   
    72   66   72 1   
    73   66   73 1   
    74   74   75 1   
    75   74   78 1   
    76   75   76 1   
    77   75   79 1   
    78   75   80 1   
    79   76   77 2   
    80   76   81 1   
    81   81   82 1   
    82   81   93 1   
    83   82   83 1   
    84   82   85 1   
    85   82   94 1   
    86   83   84 2   
    87   83  102 1   
    88   85   86 1   
    89   85   95 1   
    90   85   96 1   
    91   86   87 ar  
    92   86   88 ar  
    93   87   89 ar  
    94   87   97 1   
    95   88   90 ar  
    96   88   98 1   
    97   89   91 ar  
    98   89   99 1   
    99   90   91 ar  
   100   90  100 1   
   101   91   92 1   
   102   92  101 1   
   103  102  103 1   
   104  102  110 1   
   105  103  104 1   
   106  103  106 1   
   107  103  111 1   
   108  104  105 2   
   109  104  121 1   
   110  106  107 1   
   111  106  108 1   
   112  106  112 1   
   113  107  109 1   
   114  107  113 1   
   115  107  114 1   
   116  108  115 1   
   117  108  116 1   
   118  108  117 1   
   119  109  118 1   
   120  109  119 1   
   121  109  120 1   
   122  121  122 1   
   123  121  127 1   
   124  122  123 1   
   125  122  125 1   
   126  122  128 1   
   127  123  124 2   
   128  123  132 1   
   129  125  126 1   
   130  125  129 1   
   131  125  130 1   
   132  126  131 1   
   133  132  133 1   
   134  132  137 1   
   135  133  134 1   
   136  133  136 1   
   137  133  138 1   
   138  134  135 2   
   139  134  142 1   
   140  136  139 1   
   141  136  140 1   
   142  136  141 1   
   143  142  143 1   
   144  142  147 1   
   145  143  144 1   
   146  143  146 1   
   147  143  148 1   
   148  144  145 2   
   149  144  152 1   
   150  146  149 1   
   151  146  150 1   
   152  146  151 1   
   153  152  153 1   
   154  152  161 1   
   155  153  154 1   
   156  153  156 1   
   157  153  162 1   
   158  154  155 2   
   159  154  167 1   
   160  156  157 1   
   161  156  163 1   
   162  156  164 1   
   163  157  158 1   
   164  157  165 1   
   165  157  166 1   
   166  158  159 1   
   167  158  160 1   
   168  167  168 1   
   169  167  172 1   
   170  168  169 1   
   171  168  170 1   
   172  168  171 1   
   173  174  175 1   
   174  174  176 1   
   175  177  178 1   
   176  177  179 1   
   177  180  181 1   
   178  180  182 1   
   179  183  184 1   
   180  183  185 1   
   181  186  187 1   
   182  186  188 1   
   183  189  190 1   
   184  189  191 1   
@<TRIPOS>SUBSTRUCTURE
     1 MOL         1 TEMP              0 ****  ****    0 ROOT
