@<TRIPOS>MOLECULE
MOL
  178   175     1     0     0
SMALL
resp


@<TRIPOS>ATOM
      1 C1          3.1340   -3.3380    4.4260 c3        1 MOL     -0.394447
      2 C2          4.4870   -2.8510    3.8400 c         1 MOL      0.789053
      3 O1          4.5270   -1.7220    3.4670 o         1 MOL     -0.599566
      4 H1          2.5640   -2.4810    4.7850 hc        1 MOL      0.082510
      5 H2          2.5650   -3.8520    3.6500 hc        1 MOL      0.082510
      6 H3          3.3210   -4.0220    5.2530 hc        1 MOL      0.082510
      7 N1          5.4990   -3.6340    3.7750 n         1 MOL     -0.561067
      8 C3          6.8210   -3.3020    3.3190 c3        1 MOL      0.120643
      9 C4          6.9790   -3.2090    1.7680 c         1 MOL      0.622165
     10 O2          6.4980   -4.0820    0.9760 o         1 MOL     -0.591434
     11 C5          7.8580   -4.3210    3.9250 c3        1 MOL     -0.289541
     12 C6          9.2980   -3.8180    3.5690 c         1 MOL      0.736138
     13 O3         10.1940   -4.4970    3.0760 o         1 MOL     -0.719190
     14 O4          9.5260   -2.5960    3.8550 o         1 MOL     -0.719190
     15 H4          5.3190   -4.6090    3.9680 hn        1 MOL      0.293129
     16 H5          7.1050   -2.3730    3.8000 h1        1 MOL      0.045108
     17 H6          7.5010   -5.3050    3.6190 hc        1 MOL      0.036023
     18 H7          7.7570   -4.3620    5.0130 hc        1 MOL      0.036023
     19 N2          7.6730   -2.1890    1.3380 n         1 MOL     -0.517155
     20 C7          7.9090   -1.8930   -0.0540 c3        1 MOL      0.343675
     21 C8          6.5810   -1.4020   -0.7540 c         1 MOL      0.714005
     22 O5          5.8750   -0.5190   -0.2520 o         1 MOL     -0.586930
     23 C9          9.0460   -0.9250   -0.1900 c3        1 MOL     -0.227445
     24 H8          7.9640   -1.4200    1.9170 hn        1 MOL      0.273889
     25 H9          8.2440   -2.7960   -0.5610 h1        1 MOL      0.005911
     26 H10         9.4770   -0.9740   -1.1780 hc        1 MOL      0.045959
     27 H11         8.6600    0.0910   -0.0330 hc        1 MOL      0.045959
     28 H12         9.8580   -1.1350    0.5180 hc        1 MOL      0.045959
     29 N3          6.2080   -2.0170   -1.8690 n         1 MOL     -0.985248
     30 C10         4.8920   -1.8890   -2.5430 c3        1 MOL      0.718175
     31 C11         4.8360   -0.7920   -3.6780 c         1 MOL      0.335357
     32 O6          3.9910   -0.8220   -4.5450 o         1 MOL     -0.504612
     33 C12         4.2830   -3.1950   -3.0250 c3        1 MOL     -0.288090
     34 C13         2.8050   -3.1880   -3.0050 c         1 MOL      0.757142
     35 O7          2.2230   -2.4980   -2.1150 o         1 MOL     -0.795711
     36 O8          2.0290   -3.8540   -3.7640 o         1 MOL     -0.795711
     37 H13         6.7250   -2.8240   -2.2020 hn        1 MOL      0.323481
     38 H14         4.2120   -1.4510   -1.8110 h1        1 MOL      0.043915
     39 H15         4.5490   -3.9870   -2.3190 hc        1 MOL      0.043334
     40 H16         4.6480   -3.4010   -4.0360 hc        1 MOL      0.043334
     41 N4          5.6790    0.2350   -3.5630 n         1 MOL     -0.315907
     42 C14         5.9070    1.3660   -4.4690 c3        1 MOL     -0.256356
     43 C15         4.8490    2.5130   -4.3910 c         1 MOL      0.591915
     44 O9          5.1200    3.5540   -5.0240 o         1 MOL     -0.594533
     45 H17         6.2510    0.2180   -2.7210 hn        1 MOL      0.235372
     46 H18         6.0230    1.0000   -5.4880 h1        1 MOL      0.131654
     47 H19         6.8400    1.8660   -4.1890 h1        1 MOL      0.131654
     48 N5          3.7620    2.3270   -3.6100 n         1 MOL     -0.323087
     49 C16         2.8290    3.4180   -3.3710 c3        1 MOL      0.160849
     50 C17         3.1690    4.2990   -2.1820 c         1 MOL      0.295964
     51 O10         3.3950    3.7780   -1.0130 o         1 MOL     -0.485465
     52 C18         1.3770    2.9010   -3.1080 c3        1 MOL     -0.379188
     53 C19         0.4340    4.1080   -3.0430 c         1 MOL      0.644258
     54 N6         -0.2860    4.2090   -1.9870 n         1 MOL     -0.702648
     55 O11         0.3510    5.0040   -3.9250 o         1 MOL     -0.610727
     56 H20         3.5740    1.4480   -3.1560 hn        1 MOL      0.237489
     57 H21         2.7510    4.0220   -4.2780 h1        1 MOL      0.039551
     58 H22         1.3200    2.3460   -2.1670 hc        1 MOL      0.155740
     59 H23         1.1660    2.3360   -4.0170 hc        1 MOL      0.155740
     60 H24        -0.1290    3.6320   -1.1640 hn        1 MOL      0.341772
     61 H25        -0.6640    5.1280   -1.8060 hn        1 MOL      0.341772
     62 N7          3.1830    5.6060   -2.3300 n         1 MOL     -0.180929
     63 C20         3.1850    6.6040   -1.2060 c3        1 MOL     -0.179698
     64 C21         1.8100    6.8850   -0.5980 c         1 MOL      0.543424
     65 O12         0.8050    6.9300   -1.2910 o         1 MOL     -0.499049
     66 H26         3.3150    5.9580   -3.2720 hn        1 MOL      0.258508
     67 H27         3.5470    7.5670   -1.5560 h1        1 MOL      0.089206
     68 H28         3.8450    6.2710   -0.4110 h1        1 MOL      0.089206
     69 N8          1.6350    7.0480    0.6830 n         1 MOL     -0.268499
     70 C22         0.4330    7.4780    1.4470 c3        1 MOL     -0.436669
     71 C23        -0.5830    6.3960    1.9220 c         1 MOL      0.573069
     72 O13        -1.7310    6.7750    2.2370 o         1 MOL     -0.552988
     73 C24         0.9190    8.2040    2.7290 c3        1 MOL      0.560185
     74 C25         1.5850    7.3330    3.8410 c3        1 MOL     -0.472219
     75 O14         1.8570    9.1530    2.3220 oh        1 MOL     -0.661625
     76 H29         2.5180    7.1580    1.1710 hn        1 MOL      0.217598
     77 H30        -0.0910    8.2310    0.8590 h1        1 MOL      0.198777
     78 H31         0.1120    8.6760    3.3010 h1        1 MOL      0.026275
     79 H32         2.6990    8.7320    2.1180 ho        1 MOL      0.390070
     80 H33         2.1870    6.5920    3.3170 hc        1 MOL      0.114121
     81 H34         2.2070    8.0150    4.4250 hc        1 MOL      0.114121
     82 H35         0.8170    6.9920    4.5310 hc        1 MOL      0.114121
     83 N9         -0.1780    5.0950    1.9770 n         1 MOL     -0.266943
     84 C26        -1.1540    3.9890    2.2050 c3        1 MOL      0.071645
     85 C27        -0.9500    2.8290    1.2480 c         1 MOL      0.285135
     86 O15         0.0960    2.7740    0.5990 o         1 MOL     -0.443561
     87 C28        -1.2130    3.6340    3.7440 c3        1 MOL     -0.011564
     88 C29         0.1260    3.2220    4.3020 c3        1 MOL     -0.007784
     89 C30        -1.7580    4.8200    4.5350 c3        1 MOL     -0.327298
     90 C31         0.4100    1.7900    3.9150 c3        1 MOL      0.017348
     91 H36         0.7940    4.8440    1.9040 hn        1 MOL      0.244181
     92 H37        -2.1150    4.3840    1.8570 h1        1 MOL      0.070822
     93 H38        -1.8630    2.7710    3.9010 hc        1 MOL      0.043709
     94 H39         0.1030    3.3070    5.3860 hc        1 MOL      0.011770
     95 H40         0.9280    3.8290    3.8810 hc        1 MOL      0.011770
     96 H41        -2.7600    5.0860    4.1900 hc        1 MOL      0.087925
     97 H42        -1.8310    4.6310    5.6030 hc        1 MOL      0.087925
     98 H43        -1.0000    5.6070    4.4750 hc        1 MOL      0.087925
     99 H44         0.6840    1.6570    2.8760 hc        1 MOL      0.005311
    100 H45         1.2640    1.4920    4.5300 hc        1 MOL      0.005311
    101 H46        -0.4440    1.1460    4.1370 hc        1 MOL      0.005311
    102 N10        -1.8510    1.8520    1.1490 n         1 MOL     -0.198140
    103 C32        -1.8630    0.6690    0.3140 c3        1 MOL      0.016340
    104 C33        -3.2370    0.1180   -0.0040 c         1 MOL      0.518680
    105 O16        -3.4620   -1.0900    0.0140 o         1 MOL     -0.487487
    106 C34        -0.9420   -0.3920    0.9430 c3        1 MOL     -0.317605
    107 C35        -0.7070   -1.5560   -0.0390 c         1 MOL      0.785867
    108 O17        -0.9720   -1.3680   -1.2640 o         1 MOL     -0.727195
    109 O18        -0.3500   -2.7360    0.2400 o         1 MOL     -0.727195
    110 H47        -2.6800    1.8890    1.7340 hn        1 MOL      0.194306
    111 H48        -1.4020    1.0310   -0.6110 h1        1 MOL      0.048010
    112 H49        -1.3180   -0.7870    1.8810 hc        1 MOL      0.119207
    113 H50         0.0510    0.0140    1.1680 hc        1 MOL      0.119207
    114 N11        -4.2930    0.9430   -0.2370 n         1 MOL     -0.357785
    115 C36        -5.6320    0.6370   -0.6940 c3        1 MOL      0.069804
    116 C37        -6.3700   -0.3220    0.2910 c         1 MOL      0.425139
    117 O19        -6.2720   -0.1840    1.5450 o         1 MOL     -0.565591
    118 C38        -6.4700    1.9230   -0.8150 c3        1 MOL     -0.268315
    119 C39        -7.9140    1.7400   -1.2620 ca        1 MOL      0.133481
    120 C40        -8.0710    1.5430   -2.6250 ca        1 MOL     -0.192060
    121 C41        -9.0080    1.6600   -0.3780 ca        1 MOL     -0.192060
    122 C42        -9.3320    1.2810   -3.1850 ca        1 MOL     -0.080489
    123 C43       -10.2600    1.3290   -0.9000 ca        1 MOL     -0.080489
    124 C44       -10.4250    1.0600   -2.3100 ca        1 MOL     -0.167840
    125 H51        -4.0710    1.9140   -0.0290 hn        1 MOL      0.186819
    126 H52        -5.6140    0.0730   -1.6250 h1        1 MOL      0.080169
    127 H53        -5.9930    2.6400   -1.4920 hc        1 MOL      0.112942
    128 H54        -6.4090    2.4410    0.1410 hc        1 MOL      0.112942
    129 H55        -7.1550    1.6020   -3.1980 ha        1 MOL      0.134124
    130 H56        -8.9060    1.8490    0.6820 ha        1 MOL      0.134124
    131 H57        -9.4160    1.1970   -4.2560 ha        1 MOL      0.107584
    132 H58       -11.1160    1.2840   -0.2560 ha        1 MOL      0.107584
    133 H59       -11.3080    0.6400   -2.7470 ha        1 MOL      0.120752
    134 N12        -7.1130   -1.3450   -0.2090 n         1 MOL     -0.032746
    135 C45        -7.9400   -2.2220    0.5890 c3        1 MOL     -0.002458
    136 C46        -7.0900   -3.0730    1.5890 c         1 MOL      0.204615
    137 O20        -7.6830   -3.7700    2.3910 o         1 MOL     -0.493606
    138 C47        -8.5400   -3.1440   -0.4680 c3        1 MOL      0.033708
    139 C48        -7.5230   -3.2090   -1.5630 c3        1 MOL      0.089486
    140 C49        -7.2300   -1.6880   -1.6130 c3        1 MOL     -0.251747
    141 H60        -8.8060   -1.8210    1.1000 h1        1 MOL      0.082231
    142 H61        -8.7600   -4.1490   -0.1120 hc        1 MOL      0.007298
    143 H62        -9.4960   -2.7590   -0.8240 hc        1 MOL      0.007298
    144 H63        -6.6190   -3.7830   -1.3660 hc        1 MOL     -0.004664
    145 H64        -7.9380   -3.6330   -2.4750 hc        1 MOL     -0.004664
    146 H65        -6.3560   -1.5530   -2.2490 h1        1 MOL      0.090486
    147 H66        -8.1080   -1.2370   -2.0740 h1        1 MOL      0.090486
    148 N13        -5.7640   -3.1610    1.4610 n         1 MOL      0.078717
    149 C50        -4.8560   -4.0770    2.1780 c3        1 MOL     -0.396596
    150 C51        -4.5550   -3.4660    3.6030 c         1 MOL      0.513234
    151 O21        -4.2950   -4.1730    4.6050 o         1 MOL     -0.539351
    152 C52        -3.6070   -4.3020    1.4070 c3        1 MOL      0.422335
    153 C53        -3.8100   -4.9110    0.0060 c3        1 MOL     -0.202364
    154 C54        -2.6140   -4.9240   -0.9100 c         1 MOL      0.828573
    155 O22        -2.7040   -4.4600   -2.0480 o         1 MOL     -0.791690
    156 O23        -1.5370   -5.3160   -0.4850 o         1 MOL     -0.791690
    157 H67        -5.2930   -2.6290    0.7430 hn        1 MOL      0.207562
    158 H68        -5.3070   -5.0590    2.3110 h1        1 MOL      0.135876
    159 H69        -2.9780   -4.9110    2.0510 hc        1 MOL     -0.048660
    160 H70        -3.1130   -3.3320    1.3440 hc        1 MOL     -0.048660
    161 H71        -4.5920   -4.4150   -0.5840 hc        1 MOL     -0.011855
    162 H72        -4.1410   -5.9350    0.1350 hc        1 MOL     -0.011855
    163 N14        -4.5890   -2.1250    3.7550 n         1 MOL     -0.241864
    164 C55        -4.1920   -1.4850    5.0690 c3        1 MOL     -0.397203
    165 H73        -4.7790   -1.9220    5.8770 h1        1 MOL      0.144550
    166 H74        -3.1320   -1.6610    5.2550 h1        1 MOL      0.144550
    167 H75        -4.3800   -0.4130    5.0240 h1        1 MOL      0.144550
    168 H76        -4.7780   -1.5050    2.9790 hn        1 MOL      0.249322
    169 Ca1        -0.2120   -3.8020   -2.2230 Ca        1 MOL      1.717772
    170 O24         1.4990   -5.6770   -1.2910 oh        1 MOL     -0.761578
    171 H77         1.7750   -6.4950   -1.7090 ho        1 MOL      0.382766
    172 H78         2.2160   -5.4620   -0.6900 ho        1 MOL      0.382766
    173 O25        -0.4790   -5.9780   -3.6210 oh        1 MOL     -0.761578
    174 H79        -1.2610   -6.5190   -3.7090 ho        1 MOL      0.382766
    175 H80         0.0130   -6.1450   -4.4200 ho        1 MOL      0.382766
    176 O26        -1.0610   -3.0760   -4.6920 oh        1 MOL     -0.761578
    177 H81        -1.1710   -2.2070   -5.0790 ho        1 MOL      0.382766
    178 H82        -1.0920   -3.6720   -5.4410 ho        1 MOL      0.382766
@<TRIPOS>BOND
     1    1    2 1   
     2    1    4 1   
     3    1    5 1   
     4    1    6 1   
     5    2    3 2   
     6    2    7 1   
     7    7    8 1   
     8    7   15 1   
     9    8    9 1   
    10    8   11 1   
    11    8   16 1   
    12    9   10 2   
    13    9   19 1   
    14   11   12 1   
    15   11   17 1   
    16   11   18 1   
    17   12   13 1   
    18   12   14 1   
    19   19   20 1   
    20   19   24 1   
    21   20   21 1   
    22   20   23 1   
    23   20   25 1   
    24   21   22 2   
    25   21   29 1   
    26   23   26 1   
    27   23   27 1   
    28   23   28 1   
    29   29   30 1   
    30   29   37 1   
    31   30   31 1   
    32   30   33 1   
    33   30   38 1   
    34   31   32 2   
    35   31   41 1   
    36   33   34 1   
    37   33   39 1   
    38   33   40 1   
    39   34   35 1   
    40   34   36 1   
    41   41   42 1   
    42   41   45 1   
    43   42   43 1   
    44   42   46 1   
    45   42   47 1   
    46   43   44 2   
    47   43   48 1   
    48   48   49 1   
    49   48   56 1   
    50   49   50 1   
    51   49   52 1   
    52   49   57 1   
    53   50   51 2   
    54   50   62 1   
    55   52   53 1   
    56   52   58 1   
    57   52   59 1   
    58   53   54 1   
    59   53   55 2   
    60   54   60 1   
    61   54   61 1   
    62   62   63 1   
    63   62   66 1   
    64   63   64 1   
    65   63   67 1   
    66   63   68 1   
    67   64   65 2   
    68   64   69 1   
    69   69   70 1   
    70   69   76 1   
    71   70   71 1   
    72   70   73 1   
    73   70   77 1   
    74   71   72 2   
    75   71   83 1   
    76   73   74 1   
    77   73   75 1   
    78   73   78 1   
    79   74   80 1   
    80   74   81 1   
    81   74   82 1   
    82   75   79 1   
    83   83   84 1   
    84   83   91 1   
    85   84   85 1   
    86   84   87 1   
    87   84   92 1   
    88   85   86 2   
    89   85  102 1   
    90   87   88 1   
    91   87   89 1   
    92   87   93 1   
    93   88   90 1   
    94   88   94 1   
    95   88   95 1   
    96   89   96 1   
    97   89   97 1   
    98   89   98 1   
    99   90   99 1   
   100   90  100 1   
   101   90  101 1   
   102  102  103 1   
   103  102  110 1   
   104  103  104 1   
   105  103  106 1   
   106  103  111 1   
   107  104  105 2   
   108  104  114 1   
   109  106  107 1   
   110  106  112 1   
   111  106  113 1   
   112  107  108 1   
   113  107  109 1   
   114  114  115 1   
   115  114  125 1   
   116  115  116 1   
   117  115  118 1   
   118  115  126 1   
   119  116  117 2   
   120  116  134 1   
   121  118  119 1   
   122  118  127 1   
   123  118  128 1   
   124  119  120 ar  
   125  119  121 ar  
   126  120  122 ar  
   127  120  129 1   
   128  121  123 ar  
   129  121  130 1   
   130  122  124 ar  
   131  122  131 1   
   132  123  124 ar  
   133  123  132 1   
   134  124  133 1   
   135  134  135 1   
   136  134  140 1   
   137  135  136 1   
   138  135  138 1   
   139  135  141 1   
   140  136  137 2   
   141  136  148 1   
   142  138  139 1   
   143  138  142 1   
   144  138  143 1   
   145  139  140 1   
   146  139  144 1   
   147  139  145 1   
   148  140  146 1   
   149  140  147 1   
   150  148  149 1   
   151  148  157 1   
   152  149  150 1   
   153  149  152 1   
   154  149  158 1   
   155  150  151 2   
   156  150  163 1   
   157  152  153 1   
   158  152  159 1   
   159  152  160 1   
   160  153  154 1   
   161  153  161 1   
   162  153  162 1   
   163  154  155 1   
   164  154  156 1   
   165  163  164 1   
   166  163  168 1   
   167  164  165 1   
   168  164  166 1   
   169  164  167 1   
   170  170  171 1   
   171  170  172 1   
   172  173  174 1   
   173  173  175 1   
   174  176  177 1   
   175  176  178 1   
@<TRIPOS>SUBSTRUCTURE
     1 MOL         1 TEMP              0 ****  ****    0 ROOT
