@<TRIPOS>MOLECULE
MOL
  192   187     1     0     0
SMALL
resp


@<TRIPOS>ATOM
      1 C1         11.2560   -5.4440    2.8390 c3        1 MOL     -0.370398
      2 C2         11.2620   -3.8900    2.5090 c         1 MOL      0.695390
      3 O1         11.7300   -2.9880    3.1840 o         1 MOL     -0.610447
      4 H1         10.6670   -5.9710    2.0890 hc        1 MOL      0.100137
      5 H2         12.2790   -5.8210    2.8280 hc        1 MOL      0.100137
      6 H3         10.8180   -5.6040    3.8240 hc        1 MOL      0.100137
      7 N1         10.6860   -3.5960    1.3590 n         1 MOL     -0.325642
      8 C3         10.6070   -2.2740    0.7460 c3        1 MOL     -0.174952
      9 C4          9.1420   -1.7680    0.7490 c         1 MOL      0.500207
     10 O2          8.2230   -2.4830    0.4190 o         1 MOL     -0.646865
     11 C5         11.2090   -2.2220   -0.6950 c3        1 MOL      0.004291
     12 C6         10.7060   -3.2040   -1.7600 c         1 MOL      0.758661
     13 O3          9.8400   -4.0620   -1.4800 o         1 MOL     -0.703526
     14 O4         11.3070   -3.1860   -2.8670 o         1 MOL     -0.703526
     15 H4         10.6090   -4.4400    0.8020 hn        1 MOL      0.134004
     16 H5         11.0580   -1.4880    1.3520 h1        1 MOL      0.097221
     17 H6         12.2470   -2.5360   -0.5790 hc        1 MOL      0.037592
     18 H7         11.2940   -1.1970   -1.0590 hc        1 MOL      0.037592
     19 N2          8.9690   -0.4590    1.0570 n         1 MOL     -0.241642
     20 C7          7.7340    0.3420    1.0350 c3        1 MOL     -0.270755
     21 C8          7.2590    0.7090   -0.3430 c         1 MOL      0.651295
     22 O5          7.8680    1.5770   -0.9830 o         1 MOL     -0.525124
     23 C9          7.9430    1.6380    1.7750 c3        1 MOL     -0.259743
     24 C10         8.4280    1.3460    3.2280 c3        1 MOL      0.094272
     25 C11         8.2920    2.7010    3.9100 c3        1 MOL     -0.106459
     26 C12         8.1580    2.4350    5.3960 c3        1 MOL      0.155467
     27 N3          8.1970    3.7020    6.1380 n4        1 MOL     -0.433651
     28 H8          9.8060    0.0580    1.3110 hn        1 MOL      0.265976
     29 H9          6.9690   -0.2870    1.4950 h1        1 MOL      0.178666
     30 H10         7.0300    2.2180    1.6530 hc        1 MOL      0.134227
     31 H11         8.6670    2.2880    1.2780 hc        1 MOL      0.134227
     32 H12         9.4460    0.9480    3.2480 hc        1 MOL      0.007386
     33 H13         7.7670    0.6700    3.7740 hc        1 MOL      0.007386
     34 H14         7.3960    3.1850    3.5060 hc        1 MOL      0.050674
     35 H15         9.1670    3.3080    3.6730 hc        1 MOL      0.050674
     36 H16         8.9050    1.7860    5.8490 hx        1 MOL      0.053366
     37 H17         7.2550    1.8470    5.5950 hx        1 MOL      0.053366
     38 H18         7.3980    4.2560    5.8370 hn        1 MOL      0.315082
     39 H19         8.0350    3.5260    7.1160 hn        1 MOL      0.315082
     40 H20         9.0770    4.1580    5.9480 hn        1 MOL      0.315082
     41 N4          6.1480    0.0410   -0.7810 n         1 MOL     -0.383029
     42 C13         5.3000    0.3760   -1.9190 c3        1 MOL     -0.010760
     43 C14         3.8780   -0.1380   -1.7170 c         1 MOL      0.479261
     44 O6          3.6340   -1.0560   -0.9450 o         1 MOL     -0.604024
     45 C15         5.9750   -0.2420   -3.2110 c3        1 MOL     -0.299317
     46 C16         6.5320   -1.6770   -3.0730 c         1 MOL      0.770829
     47 O7          7.7270   -2.0120   -2.7820 o         1 MOL     -0.734860
     48 O8          5.7290   -2.5990   -3.1500 o         1 MOL     -0.734860
     49 H21         5.7230   -0.6570   -0.1940 hn        1 MOL      0.173840
     50 H22         5.2730    1.4440   -2.1020 h1        1 MOL      0.139310
     51 H23         6.8430    0.3470   -3.5140 hc        1 MOL      0.110192
     52 H24         5.2210   -0.1460   -3.9940 hc        1 MOL      0.110192
     53 N5          2.8450    0.2530   -2.4910 n         1 MOL     -0.302854
     54 C17         2.7070    1.3350   -3.4060 c3        1 MOL     -0.241185
     55 C18         2.6820    2.6910   -2.6750 c         1 MOL      0.634632
     56 O9          3.2780    2.8060   -1.6440 o         1 MOL     -0.555020
     57 H25         1.9680   -0.0810   -2.1110 hn        1 MOL      0.308291
     58 H26         1.7700    1.2550   -3.9600 h1        1 MOL      0.118795
     59 H27         3.5300    1.3830   -4.1230 h1        1 MOL      0.118795
     60 N6          2.2060    3.7950   -3.2780 n         1 MOL     -0.442477
     61 C19         2.2710    5.1930   -2.7250 c3        1 MOL      0.075398
     62 C20         1.7280    5.2590   -1.3520 c         1 MOL      0.347462
     63 O10         0.5720    5.0320   -1.1410 o         1 MOL     -0.475493
     64 C21         1.6510    6.2370   -3.6460 c3        1 MOL     -0.254620
     65 C22         1.4030    7.6290   -3.1490 c         1 MOL      0.800390
     66 O11         0.5000    8.3690   -3.5790 o         1 MOL     -0.731808
     67 O12         2.3140    8.0930   -2.4430 o         1 MOL     -0.731808
     68 H28         1.7450    3.7110   -4.1700 hn        1 MOL      0.273492
     69 H29         3.3140    5.5110   -2.7810 h1        1 MOL      0.049434
     70 H30         0.6560    5.8970   -3.9380 hc        1 MOL      0.051811
     71 H31         2.2110    6.2930   -4.5850 hc        1 MOL      0.051811
     72 N7          2.5090    5.4960   -0.3500 n         1 MOL     -0.127762
     73 C23         2.1120    5.6050    1.0570 c3        1 MOL     -0.251620
     74 C24         1.8940    4.2300    1.6550 c         1 MOL      0.606572
     75 O13         1.7020    4.1820    2.8360 o         1 MOL     -0.586163
     76 H32         3.4350    5.8180   -0.5930 hn        1 MOL      0.195024
     77 H33         1.1510    6.1070    1.0870 h1        1 MOL      0.142346
     78 H34         2.8460    6.1650    1.6470 h1        1 MOL      0.142346
     79 N8          2.0000    3.0270    0.9770 n         1 MOL     -0.365625
     80 C25         1.6040    1.7290    1.5070 c3        1 MOL      0.163521
     81 C26         0.6220    0.9210    0.6070 c         1 MOL      0.532352
     82 O14         0.5040    1.2460   -0.5560 o         1 MOL     -0.480676
     83 C27         2.9340    0.9340    1.9020 c3        1 MOL      0.357032
     84 C28         3.9090    1.7510    2.7830 c3        1 MOL     -0.287979
     85 O15         2.6470   -0.1000    2.7820 oh        1 MOL     -0.606921
     86 H35         2.3400    3.1040    0.0370 hn        1 MOL      0.113779
     87 H36         1.0860    1.9600    2.4360 h1        1 MOL      0.073861
     88 H37         3.5450    0.6340    1.0540 h1        1 MOL      0.021096
     89 H38         3.2440   -0.8290    2.6040 ho        1 MOL      0.375114
     90 H39         4.7180    1.0680    3.0450 hc        1 MOL      0.053519
     91 H40         4.3990    2.5360    2.1950 hc        1 MOL      0.053519
     92 H41         3.3730    2.2510    3.5930 hc        1 MOL      0.053519
     93 N9         -0.1100   -0.0680    1.1000 n         1 MOL     -0.463677
     94 C29        -0.7680   -1.0120    0.2340 c3        1 MOL     -0.221037
     95 C30        -2.1800   -0.5650   -0.2820 c         1 MOL      0.602460
     96 O16        -2.7030   -1.1790   -1.1670 o         1 MOL     -0.552873
     97 C31        -0.8060   -2.3800    0.9550 c3        1 MOL      0.292539
     98 C32        -1.3770   -2.4270    2.4280 c3        1 MOL     -0.032164
     99 C33         0.6730   -2.9650    1.0560 c3        1 MOL     -0.260003
    100 C34        -1.7540   -3.7470    2.9680 c3        1 MOL     -0.204443
    101 H42        -0.0110   -0.2790    2.0850 hn        1 MOL      0.213174
    102 H43        -0.1340   -1.0790   -0.6560 h1        1 MOL      0.130662
    103 H44        -1.4110   -3.0000    0.2900 hc        1 MOL     -0.008664
    104 H45        -2.2900   -1.8350    2.3930 hc        1 MOL      0.040885
    105 H46        -0.6940   -2.0020    3.1620 hc        1 MOL      0.040885
    106 H47         0.7600   -3.9710    1.4750 hc        1 MOL      0.046119
    107 H48         0.9770   -3.1100    0.0240 hc        1 MOL      0.046119
    108 H49         1.3950   -2.3200    1.5580 hc        1 MOL      0.046119
    109 H50        -1.0110   -4.5470    3.0400 hc        1 MOL      0.055029
    110 H51        -2.0750   -3.5270    3.9810 hc        1 MOL      0.055029
    111 H52        -2.6460   -4.0710    2.4270 hc        1 MOL      0.055029
    112 N10        -2.7520    0.4470    0.3460 n         1 MOL     -0.430579
    113 C35        -4.0170    1.0300   -0.0350 c3        1 MOL     -0.009134
    114 C36        -4.8720    1.4680    1.1620 c         1 MOL      0.600993
    115 O17        -4.3430    1.9010    2.1980 o         1 MOL     -0.553165
    116 C37        -3.8850    2.0850   -1.1690 c3        1 MOL      0.368907
    117 C38        -5.2260    2.6500   -1.6990 c3        1 MOL     -0.460531
    118 O18        -3.1670    3.2150   -0.7130 oh        1 MOL     -0.569310
    119 H53        -2.1200    0.9540    0.9490 hn        1 MOL      0.253679
    120 H54        -4.6570    0.2550   -0.4680 h1        1 MOL      0.050413
    121 H55        -3.2960    1.6390   -1.9690 h1        1 MOL      0.026925
    122 H56        -2.2260    3.0280   -0.6580 ho        1 MOL      0.369088
    123 H57        -5.8740    1.8260   -1.9920 hc        1 MOL      0.119143
    124 H58        -5.7320    3.1500   -0.8740 hc        1 MOL      0.119143
    125 H59        -4.9490    3.3510   -2.4880 hc        1 MOL      0.119143
    126 N11        -6.1300    1.3470    1.0250 n         1 MOL     -0.468703
    127 C39        -7.0820    1.8400    1.9880 c3        1 MOL      0.014351
    128 C40        -8.3600    0.9400    2.2250 c         1 MOL      0.533574
    129 O19        -8.7440    0.7440    3.4000 o         1 MOL     -0.525646
    130 C41        -7.4760    3.3090    1.7100 c3        1 MOL      0.313055
    131 C42        -8.3130    3.9740    2.7830 c3        1 MOL     -0.369294
    132 O20        -8.1270    3.3770    0.4250 oh        1 MOL     -0.650562
    133 H60        -6.5040    0.9080    0.2020 hn        1 MOL      0.266119
    134 H61        -6.6370    1.8860    2.9750 h1        1 MOL      0.094231
    135 H62        -6.5810    3.9370    1.6340 h1        1 MOL      0.064845
    136 H63        -8.6930    4.1490    0.3960 ho        1 MOL      0.399721
    137 H64        -7.8510    3.8770    3.7600 hc        1 MOL      0.103411
    138 H65        -8.5100    5.0280    2.5610 hc        1 MOL      0.103411
    139 H66        -9.2670    3.4630    2.8580 hc        1 MOL      0.103411
    140 N12        -9.0260    0.5160    1.1590 n         1 MOL     -0.474593
    141 C43       -10.3090   -0.2230    1.1910 c3        1 MOL      0.021079
    142 C44       -10.3330   -1.3430    0.1440 c         1 MOL      0.461852
    143 O21       -10.1270   -1.0910   -1.0520 o         1 MOL     -0.525123
    144 C45       -11.4660    0.7030    1.0310 c3        1 MOL     -0.325193
    145 C46       -11.6420    1.2850   -0.4060 c3        1 MOL      0.030562
    146 C47       -12.3060    2.6730   -0.2550 c3        1 MOL     -0.124777
    147 C48       -12.4970    3.1720   -1.7230 c3        1 MOL      0.200228
    148 N13       -13.5490    4.2090   -1.8870 n4        1 MOL     -0.334820
    149 H67        -8.6410    0.6780    0.2400 hn        1 MOL      0.357798
    150 H68       -10.3320   -0.6420    2.1900 h1        1 MOL      0.097381
    151 H69       -11.3150    1.5050    1.7540 hc        1 MOL      0.136671
    152 H70       -12.3900    0.1600    1.2250 hc        1 MOL      0.136671
    153 H71       -12.2890    0.6380   -0.9820 hc        1 MOL      0.051495
    154 H72       -10.6110    1.3390   -0.7800 hc        1 MOL      0.051495
    155 H73       -11.7490    3.3430    0.4080 hc        1 MOL      0.043690
    156 H74       -13.2840    2.4430    0.1730 hc        1 MOL      0.043690
    157 H75       -12.6580    2.3390   -2.3940 hx        1 MOL      0.033984
    158 H76       -11.5670    3.6270   -2.0380 hx        1 MOL      0.033984
    159 H77       -13.3980    5.1120   -1.4680 hn        1 MOL      0.275645
    160 H78       -13.6590    4.3980   -2.8770 hn        1 MOL      0.275645
    161 H79       -14.4440    3.8160   -1.6340 hn        1 MOL      0.275645
    162 N14       -10.6890   -2.5820    0.5570 n         1 MOL     -0.411612
    163 C49       -11.0990   -3.6470   -0.3870 c3        1 MOL      0.190874
    164 C50        -9.9210   -4.3370   -1.2060 c         1 MOL      0.391518
    165 O22       -10.1570   -4.6550   -2.3580 o         1 MOL     -0.532137
    166 C51       -11.9770   -4.7040    0.2720 c3        1 MOL      0.075963
    167 C52       -12.6140   -5.7650   -0.7390 c3        1 MOL     -0.330831
    168 C53       -13.6080   -6.6490    0.0230 c         1 MOL      0.728523
    169 O23       -14.6490   -6.1240    0.4640 o         1 MOL     -0.638031
    170 O24       -13.3370   -7.8380    0.3100 o         1 MOL     -0.638031
    171 H80       -11.0460   -2.6330    1.5040 hn        1 MOL      0.242621
    172 H81       -11.7820   -3.1980   -1.1100 h1        1 MOL      0.046591
    173 H82       -12.7870   -4.2510    0.8410 hc        1 MOL      0.008730
    174 H83       -11.3970   -5.2810    0.9870 hc        1 MOL      0.008730
    175 H84       -11.8630   -6.4340   -1.1650 hc        1 MOL      0.083789
    176 H85       -13.2950   -5.2770   -1.4320 hc        1 MOL      0.083789
    177 N15        -8.7000   -4.5010   -0.7240 n         1 MOL     -0.334394
    178 C54        -8.2560   -4.4850    0.7160 c3        1 MOL      0.008056
    179 H86        -7.6540   -3.5950    0.9010 h1        1 MOL      0.040930
    180 H87        -9.1310   -4.4720    1.3670 h1        1 MOL      0.040930
    181 H88        -7.6610   -5.3750    0.9240 h1        1 MOL      0.040930
    182 H89        -8.0020   -4.6790   -1.4270 hn        1 MOL      0.286708
    183 Ca1         7.2600   -4.1360   -1.3790 Ca        1 MOL      1.760528
    184 O25         7.5770   -4.9310   -4.1180 oh        1 MOL     -0.887464
    185 H90         6.7770   -4.9790   -4.6350 ho        1 MOL      0.438974
    186 H91         8.2470   -4.6330   -4.7370 ho        1 MOL      0.438974
    187 O26         5.1580   -5.4380   -2.6540 oh        1 MOL     -0.887464
    188 H92         4.6000   -4.6730   -2.7910 ho        1 MOL      0.438974
    189 H93         4.5390   -6.1740   -2.5780 ho        1 MOL      0.438974
    190 O27         5.4120   -2.9360    0.0150 oh        1 MOL     -0.887464
    191 H94         5.2140   -2.8560    0.9520 ho        1 MOL      0.438974
    192 H95         4.5960   -2.6930   -0.4220 ho        1 MOL      0.438974
@<TRIPOS>BOND
     1    1    2 1   
     2    1    4 1   
     3    1    5 1   
     4    1    6 1   
     5    2    3 2   
     6    2    7 1   
     7    7    8 1   
     8    7   15 1   
     9    8    9 1   
    10    8   11 1   
    11    8   16 1   
    12    9   10 2   
    13    9   19 1   
    14   11   12 1   
    15   11   17 1   
    16   11   18 1   
    17   12   13 1   
    18   12   14 1   
    19   19   20 1   
    20   19   28 1   
    21   20   21 1   
    22   20   23 1   
    23   20   29 1   
    24   21   22 2   
    25   21   41 1   
    26   23   24 1   
    27   23   30 1   
    28   23   31 1   
    29   24   25 1   
    30   24   32 1   
    31   24   33 1   
    32   25   26 1   
    33   25   34 1   
    34   25   35 1   
    35   26   27 1   
    36   26   36 1   
    37   26   37 1   
    38   27   38 1   
    39   27   39 1   
    40   27   40 1   
    41   41   42 1   
    42   41   49 1   
    43   42   43 1   
    44   42   45 1   
    45   42   50 1   
    46   43   44 2   
    47   43   53 1   
    48   45   46 1   
    49   45   51 1   
    50   45   52 1   
    51   46   47 1   
    52   46   48 1   
    53   53   54 1   
    54   53   57 1   
    55   54   55 1   
    56   54   58 1   
    57   54   59 1   
    58   55   56 2   
    59   55   60 1   
    60   60   61 1   
    61   60   68 1   
    62   61   62 1   
    63   61   64 1   
    64   61   69 1   
    65   62   63 2   
    66   62   72 1   
    67   64   65 1   
    68   64   70 1   
    69   64   71 1   
    70   65   66 1   
    71   65   67 1   
    72   72   73 1   
    73   72   76 1   
    74   73   74 1   
    75   73   77 1   
    76   73   78 1   
    77   74   75 2   
    78   74   79 1   
    79   79   80 1   
    80   79   86 1   
    81   80   81 1   
    82   80   83 1   
    83   80   87 1   
    84   81   82 2   
    85   81   93 1   
    86   83   84 1   
    87   83   85 1   
    88   83   88 1   
    89   84   90 1   
    90   84   91 1   
    91   84   92 1   
    92   85   89 1   
    93   93   94 1   
    94   93  101 1   
    95   94   95 1   
    96   94   97 1   
    97   94  102 1   
    98   95   96 2   
    99   95  112 1   
   100   97   98 1   
   101   97   99 1   
   102   97  103 1   
   103   98  100 1   
   104   98  104 1   
   105   98  105 1   
   106   99  106 1   
   107   99  107 1   
   108   99  108 1   
   109  100  109 1   
   110  100  110 1   
   111  100  111 1   
   112  112  113 1   
   113  112  119 1   
   114  113  114 1   
   115  113  116 1   
   116  113  120 1   
   117  114  115 2   
   118  114  126 1   
   119  116  117 1   
   120  116  118 1   
   121  116  121 1   
   122  117  123 1   
   123  117  124 1   
   124  117  125 1   
   125  118  122 1   
   126  126  127 1   
   127  126  133 1   
   128  127  128 1   
   129  127  130 1   
   130  127  134 1   
   131  128  129 2   
   132  128  140 1   
   133  130  131 1   
   134  130  132 1   
   135  130  135 1   
   136  131  137 1   
   137  131  138 1   
   138  131  139 1   
   139  132  136 1   
   140  140  141 1   
   141  140  149 1   
   142  141  142 1   
   143  141  144 1   
   144  141  150 1   
   145  142  143 2   
   146  142  162 1   
   147  144  145 1   
   148  144  151 1   
   149  144  152 1   
   150  145  146 1   
   151  145  153 1   
   152  145  154 1   
   153  146  147 1   
   154  146  155 1   
   155  146  156 1   
   156  147  148 1   
   157  147  157 1   
   158  147  158 1   
   159  148  159 1   
   160  148  160 1   
   161  148  161 1   
   162  162  163 1   
   163  162  171 1   
   164  163  164 1   
   165  163  166 1   
   166  163  172 1   
   167  164  165 2   
   168  164  177 1   
   169  166  167 1   
   170  166  173 1   
   171  166  174 1   
   172  167  168 1   
   173  167  175 1   
   174  167  176 1   
   175  168  169 1   
   176  168  170 1   
   177  177  178 1   
   178  177  182 1   
   179  178  179 1   
   180  178  180 1   
   181  178  181 1   
   182  184  185 1   
   183  184  186 1   
   184  187  188 1   
   185  187  189 1   
   186  190  191 1   
   187  190  192 1   
@<TRIPOS>SUBSTRUCTURE
     1 MOL         1 TEMP              0 ****  ****    0 ROOT
