@<TRIPOS>MOLECULE
MOL
  182   178     1     0     0
SMALL
resp


@<TRIPOS>ATOM
      1 C1         -0.1080   -3.6080    6.5440 c3        1 MOL     -0.381460
      2 C2          0.0650   -3.4160    5.0410 c         1 MOL      0.803250
      3 O1         -0.8590   -3.4920    4.2570 o         1 MOL     -0.614862
      4 H1          0.5400   -2.9100    7.0750 hc        1 MOL      0.104898
      5 H2         -1.1460   -3.4200    6.8180 hc        1 MOL      0.104898
      6 H3          0.1610   -4.6280    6.8140 hc        1 MOL      0.104898
      7 N1          1.2820   -3.0770    4.6150 n         1 MOL     -0.624318
      8 C3          1.5510   -2.9070    3.1540 c3        1 MOL      0.078240
      9 C4          1.3510   -4.1220    2.2630 c         1 MOL      0.578211
     10 O2          1.6300   -5.2110    2.6940 o         1 MOL     -0.540377
     11 C5          3.0380   -2.3840    2.9560 c3        1 MOL      0.031319
     12 C6          3.1770   -1.6300    1.6490 c         1 MOL      0.543981
     13 O3          3.8530   -0.5700    1.6040 o         1 MOL     -0.647313
     14 O4          2.6950   -2.1330    0.6300 o         1 MOL     -0.647313
     15 H4          2.0370   -3.1290    5.2810 hn        1 MOL      0.324379
     16 H5          0.9190   -2.1280    2.7390 h1        1 MOL     -0.097548
     17 H6          3.7420   -3.2020    3.0940 hc        1 MOL      0.023522
     18 H7          3.1920   -1.6780    3.7690 hc        1 MOL      0.023522
     19 N2          0.7070   -4.0000    1.0480 n         1 MOL     -0.297060
     20 C7          0.4910   -5.1340    0.1270 c3        1 MOL     -0.020610
     21 C8          1.7180   -5.4440   -0.7790 c         1 MOL      0.476215
     22 O5          1.5850   -6.3940   -1.6520 o         1 MOL     -0.555972
     23 C9         -0.7960   -4.9130   -0.6950 c3        1 MOL     -0.183536
     24 C10        -0.6780   -3.6400   -1.6170 c3        1 MOL      0.221560
     25 C11        -1.8610   -3.6230   -2.5920 c3        1 MOL     -0.079039
     26 C12        -3.1960   -3.4790   -1.7900 c3        1 MOL      0.159656
     27 N3         -4.2880   -3.9700   -2.7190 n4        1 MOL     -0.369349
     28 H8          0.4050   -3.0720    0.8010 hn        1 MOL      0.230293
     29 H9          0.3950   -6.0610    0.6880 h1        1 MOL      0.119459
     30 H10        -1.5850   -4.6990    0.0360 hc        1 MOL      0.055999
     31 H11        -0.9230   -5.7710   -1.3420 hc        1 MOL      0.055999
     32 H12         0.2420   -3.7580   -2.1970 hc        1 MOL      0.015970
     33 H13        -0.6350   -2.6730   -1.1270 hc        1 MOL      0.015970
     34 H14        -1.9520   -4.5840   -3.0990 hc        1 MOL      0.007308
     35 H15        -1.5940   -2.8840   -3.3400 hc        1 MOL      0.007308
     36 H16        -3.2270   -2.4230   -1.5430 hx        1 MOL      0.021715
     37 H17        -3.1500   -4.1110   -0.9000 hx        1 MOL      0.021715
     38 H18        -4.1610   -4.9020   -3.1000 hn        1 MOL      0.296842
     39 H19        -5.1720   -3.9480   -2.2320 hn        1 MOL      0.296842
     40 H20        -4.3650   -3.3440   -3.5040 hn        1 MOL      0.296842
     41 N4          2.8590   -4.7650   -0.6560 n         1 MOL     -0.313894
     42 C13         3.9460   -4.8810   -1.6730 c3        1 MOL      0.035334
     43 C14         5.2800   -4.5760   -0.9110 c         1 MOL      0.493027
     44 O6          6.2370   -5.2700   -1.1810 o         1 MOL     -0.531298
     45 C15         3.7050   -3.8720   -2.8520 c3        1 MOL     -0.195923
     46 C16         3.4020   -2.4940   -2.3490 c         1 MOL      0.857751
     47 O7          2.2320   -2.0740   -2.4060 o         1 MOL     -0.835147
     48 O8          4.2670   -1.7570   -1.8610 o         1 MOL     -0.835147
     49 H21         2.7850   -4.0450    0.0430 hn        1 MOL      0.136523
     50 H22         4.0350   -5.8990   -2.0570 h1        1 MOL      0.118521
     51 H23         2.9960   -4.2510   -3.5890 hc        1 MOL      0.063902
     52 H24         4.5460   -3.8260   -3.5390 hc        1 MOL      0.063902
     53 N5          5.3130   -3.6520    0.0600 n         1 MOL     -0.192288
     54 C17         6.5600   -3.1680    0.7480 c3        1 MOL     -0.286839
     55 C18         7.2800   -1.8910    0.1930 c         1 MOL      0.586553
     56 O9          8.2830   -1.4620    0.6590 o         1 MOL     -0.567530
     57 H25         4.5600   -2.9840    0.1880 hn        1 MOL      0.116802
     58 H26         7.3490   -3.9210    0.7490 h1        1 MOL      0.147110
     59 H27         6.2730   -2.9620    1.7750 h1        1 MOL      0.147110
     60 N6          6.7720   -1.3160   -0.8660 n         1 MOL     -0.175223
     61 C19         7.2240   -0.0340   -1.4900 c3        1 MOL     -0.076299
     62 C20         6.4430    1.1870   -1.0500 c         1 MOL      0.631186
     63 O10         5.2670    1.1310   -0.6930 o         1 MOL     -0.553706
     64 C21         7.1310   -0.0560   -2.9990 c3        1 MOL     -0.193062
     65 C22         7.6390   -1.2960   -3.7370 c         1 MOL      0.687434
     66 N7          6.7680   -2.0750   -4.2530 n         1 MOL     -0.826959
     67 O11         8.8150   -1.5220   -3.8700 o         1 MOL     -0.549532
     68 H28         6.0250   -1.7860   -1.3430 hn        1 MOL      0.198184
     69 H29         8.2790    0.0900   -1.2490 h1        1 MOL      0.079250
     70 H30         7.6360    0.8320   -3.4010 hc        1 MOL      0.041451
     71 H31         6.0650    0.0380   -3.2040 hc        1 MOL      0.041451
     72 H32         5.7670   -1.9440   -4.1850 hn        1 MOL      0.383596
     73 H33         7.1480   -2.9070   -4.6700 hn        1 MOL      0.383596
     74 N8          7.0480    2.3460   -1.1380 n         1 MOL     -0.422579
     75 C23         6.4090    3.6720   -1.1740 c3        1 MOL     -0.166434
     76 C24         5.6180    4.0460    0.1430 c         1 MOL      0.676497
     77 O12         6.1210    4.0080    1.2740 o         1 MOL     -0.521491
     78 H34         7.9840    2.3150   -1.5260 hn        1 MOL      0.328100
     79 H35         5.6560    3.6700   -1.9660 h1        1 MOL      0.095541
     80 H36         7.1520    4.4580   -1.3120 h1        1 MOL      0.095541
     81 N9          4.3610    4.3760   -0.0300 n         1 MOL     -0.745552
     82 C25         3.3030    4.6020    1.0140 c3        1 MOL      0.565968
     83 C26         2.7250    3.2670    1.5130 c         1 MOL      0.433648
     84 O13         3.1420    2.1970    1.1150 o         1 MOL     -0.403562
     85 C27         2.2310    5.5230    0.4140 c3        1 MOL     -0.101636
     86 C28         2.5780    6.8650   -0.1760 ca        1 MOL     -0.032808
     87 C29         2.1240    7.2380   -1.4450 ca        1 MOL     -0.087579
     88 C30         3.2900    7.8140    0.6700 ca        1 MOL     -0.087579
     89 C31         2.3540    8.6420   -1.9040 ca        1 MOL     -0.343030
     90 C32         3.5730    9.0850    0.1890 ca        1 MOL     -0.343030
     91 C33         3.0640    9.5550   -1.0130 ca        1 MOL      0.399699
     92 O14         3.5560   10.7490   -1.5300 oh        1 MOL     -0.456765
     93 H37         4.1040    4.5250   -0.9960 hn        1 MOL      0.290608
     94 H38         3.7430    5.0680    1.8900 h1        1 MOL     -0.006141
     95 H39         1.5240    5.7920    1.2000 hc        1 MOL      0.016062
     96 H40         1.6490    5.0680   -0.3830 hc        1 MOL      0.016062
     97 H41         1.5880    6.5560   -2.1000 ha        1 MOL      0.125600
     98 H42         3.6030    7.5910    1.6840 ha        1 MOL      0.125600
     99 H43         2.0470    8.9690   -2.8930 ha        1 MOL      0.183548
    100 H44         4.2220    9.7510    0.7420 ha        1 MOL      0.183548
    101 H45         3.4180   10.7590   -2.4760 ho        1 MOL      0.337092
    102 N10         1.7820    3.3030    2.4630 n         1 MOL     -0.757262
    103 C34         1.0650    2.1250    3.0020 c3        1 MOL      0.123599
    104 C35         0.4060    1.1030    2.0030 c         1 MOL      0.571873
    105 O15         1.0300    0.2420    1.3680 o         1 MOL     -0.481575
    106 C36         1.8690    1.3370    4.1090 c3        1 MOL      0.373678
    107 C37         0.9740    0.4340    4.9910 c3        1 MOL     -0.067230
    108 C38         2.7180    2.2130    4.9550 c3        1 MOL     -0.360451
    109 C39        -0.0180    1.1410    5.8630 c3        1 MOL     -0.188707
    110 H46         1.5090    4.2230    2.7980 hn        1 MOL      0.328363
    111 H47         0.2700    2.6180    3.5540 h1        1 MOL      0.083883
    112 H48         2.5200    0.6520    3.5510 hc        1 MOL     -0.050265
    113 H49         1.5860   -0.1640    5.6670 hc        1 MOL      0.033143
    114 H50         0.4290   -0.3020    4.4050 hc        1 MOL      0.033143
    115 H51         3.6200    2.5200    4.4350 hc        1 MOL      0.090912
    116 H52         2.1850    3.0930    5.3050 hc        1 MOL      0.090912
    117 H53         2.9770    1.6400    5.8440 hc        1 MOL      0.090912
    118 H54         0.5400    1.8470    6.4770 hc        1 MOL      0.037581
    119 H55        -0.6730    1.7610    5.2420 hc        1 MOL      0.037581
    120 H56        -0.4720    0.3680    6.4850 hc        1 MOL      0.037581
    121 N11        -0.9650    1.0760    2.0440 n         1 MOL     -0.586116
    122 C40        -1.8870    0.2420    1.2100 c3        1 MOL      0.005171
    123 C41        -3.2900    0.7780    0.9300 c         1 MOL      0.613519
    124 O16        -3.9740    1.2180    1.8480 o         1 MOL     -0.514283
    125 C42        -1.9470   -1.1560    1.7910 c3        1 MOL      0.358176
    126 O17        -2.3080   -2.1110    0.8160 oh        1 MOL     -0.766150
    127 H57        -1.4710    1.7210    2.6400 hn        1 MOL      0.287204
    128 H58        -1.4500    0.0970    0.2140 h1        1 MOL      0.143098
    129 H59        -2.6160   -1.1500    2.6500 h1        1 MOL      0.014073
    130 H60        -0.9380   -1.4250    2.0870 h1        1 MOL      0.014073
    131 H61        -2.6210   -2.8680    1.3050 ho        1 MOL      0.450770
    132 N12        -3.7870    0.6190   -0.3320 n         1 MOL     -0.705417
    133 C43        -5.1520    0.7940   -0.8090 c3        1 MOL      0.512512
    134 C44        -5.4920   -0.2460   -1.9030 c         1 MOL      0.411486
    135 O18        -4.5340   -0.7040   -2.5650 o         1 MOL     -0.567616
    136 C45        -5.3400    2.2430   -1.2660 c3        1 MOL     -0.205466
    137 H62        -3.1630    0.1360   -0.9530 hn        1 MOL      0.284532
    138 H63        -5.8530    0.6700    0.0240 h1        1 MOL      0.011606
    139 H64        -6.3170    2.4230   -1.7060 hc        1 MOL      0.045941
    140 H65        -5.1900    2.8660   -0.3840 hc        1 MOL      0.045941
    141 H66        -4.5480    2.4450   -1.9970 hc        1 MOL      0.045941
    142 N13        -6.7000   -0.7810   -2.1160 n         1 MOL     -0.480659
    143 C46        -7.9210   -0.2840   -1.4630 c3        1 MOL      0.223170
    144 C47        -9.1450   -0.0560   -2.4240 c         1 MOL      0.459680
    145 O19        -8.9860   -0.3260   -3.5740 o         1 MOL     -0.542111
    146 C48        -8.2810   -1.3610   -0.4790 c3        1 MOL     -0.100510
    147 H67        -6.7370   -1.4970   -2.8310 hn        1 MOL      0.300193
    148 H68        -7.7010    0.6300   -0.9240 h1        1 MOL     -0.021380
    149 H69        -8.9470   -2.1300   -0.8640 hc        1 MOL      0.038721
    150 H70        -7.3840   -1.9200   -0.1960 hc        1 MOL      0.038721
    151 H71        -8.7020   -0.9120    0.4240 hc        1 MOL      0.038721
    152 N14       -10.3020    0.4110   -1.9810 n         1 MOL     -0.463604
    153 C49       -10.7380    0.7460   -0.6030 c3        1 MOL      0.032805
    154 C50        -9.8740    1.8020    0.1240 c         1 MOL      0.465076
    155 O20        -9.5560    1.5590    1.3590 o         1 MOL     -0.498439
    156 C51       -12.0700    1.4230   -0.6820 c3        1 MOL      0.083546
    157 C52       -13.2720    0.4830   -0.9720 c3        1 MOL     -0.070648
    158 C53       -13.6320   -0.3590    0.2330 c         1 MOL      0.684920
    159 O21       -14.3030    0.1920    1.1630 o         1 MOL     -0.680586
    160 O22       -13.1620   -1.5130    0.4030 o         1 MOL     -0.680586
    161 H72       -11.0320    0.5180   -2.6690 hn        1 MOL      0.322780
    162 H73       -10.6980   -0.1910   -0.0450 h1        1 MOL      0.071717
    163 H74       -11.9700    2.1750   -1.4570 hc        1 MOL     -0.003021
    164 H75       -12.2860    1.9550    0.2440 hc        1 MOL     -0.003021
    165 H76       -13.0860   -0.1590   -1.8300 hc        1 MOL     -0.033629
    166 H77       -14.1650    1.0930   -1.1430 hc        1 MOL     -0.033629
    167 N15        -9.3710    2.8200   -0.6200 n         1 MOL     -0.326253
    168 C54        -8.5570    3.9780   -0.0710 c3        1 MOL     -0.292838
    169 H78        -7.8270    3.6010    0.6450 h1        1 MOL      0.138204
    170 H79        -8.0380    4.4780   -0.8890 h1        1 MOL      0.138204
    171 H80        -9.2200    4.6860    0.4260 h1        1 MOL      0.138204
    172 H81        -9.6290    2.9270   -1.5950 hn        1 MOL      0.257759
    173 Ca1         2.7730    0.1080   -0.7560 Ca        1 MOL      1.742702
    174 O23         0.2100   -0.4850   -1.8400 oh        1 MOL     -0.841330
    175 H82         0.6540   -1.1980   -2.2950 ho        1 MOL      0.409384
    176 H83        -0.3720   -0.1030   -2.4960 ho        1 MOL      0.409384
    177 O24         1.3290    2.4150   -1.2940 oh        1 MOL     -0.841330
    178 H84         0.4200    2.3350   -1.5750 ho        1 MOL      0.409384
    179 H85         1.6810    3.1340   -1.8050 ho        1 MOL      0.409384
    180 O25         2.8520    0.5230   -3.4530 oh        1 MOL     -0.841330
    181 H86         2.4940   -0.2820   -3.8230 ho        1 MOL      0.409384
    182 H87         2.8500    1.1530   -4.1780 ho        1 MOL      0.409384
@<TRIPOS>BOND
     1    1    2 1   
     2    1    4 1   
     3    1    5 1   
     4    1    6 1   
     5    2    3 2   
     6    2    7 1   
     7    7    8 1   
     8    7   15 1   
     9    8    9 1   
    10    8   11 1   
    11    8   16 1   
    12    9   10 2   
    13    9   19 1   
    14   11   12 1   
    15   11   17 1   
    16   11   18 1   
    17   12   13 1   
    18   12   14 1   
    19   19   20 1   
    20   19   28 1   
    21   20   21 1   
    22   20   23 1   
    23   20   29 1   
    24   21   22 2   
    25   21   41 1   
    26   23   24 1   
    27   23   30 1   
    28   23   31 1   
    29   24   25 1   
    30   24   32 1   
    31   24   33 1   
    32   25   26 1   
    33   25   34 1   
    34   25   35 1   
    35   26   27 1   
    36   26   36 1   
    37   26   37 1   
    38   27   38 1   
    39   27   39 1   
    40   27   40 1   
    41   41   42 1   
    42   41   49 1   
    43   42   43 1   
    44   42   45 1   
    45   42   50 1   
    46   43   44 2   
    47   43   53 1   
    48   45   46 1   
    49   45   51 1   
    50   45   52 1   
    51   46   47 1   
    52   46   48 1   
    53   53   54 1   
    54   53   57 1   
    55   54   55 1   
    56   54   58 1   
    57   54   59 1   
    58   55   56 2   
    59   55   60 1   
    60   60   61 1   
    61   60   68 1   
    62   61   62 1   
    63   61   64 1   
    64   61   69 1   
    65   62   63 2   
    66   62   74 1   
    67   64   65 1   
    68   64   70 1   
    69   64   71 1   
    70   65   66 1   
    71   65   67 2   
    72   66   72 1   
    73   66   73 1   
    74   74   75 1   
    75   74   78 1   
    76   75   76 1   
    77   75   79 1   
    78   75   80 1   
    79   76   77 2   
    80   76   81 1   
    81   81   82 1   
    82   81   93 1   
    83   82   83 1   
    84   82   85 1   
    85   82   94 1   
    86   83   84 2   
    87   83  102 1   
    88   85   86 1   
    89   85   95 1   
    90   85   96 1   
    91   86   87 ar  
    92   86   88 ar  
    93   87   89 ar  
    94   87   97 1   
    95   88   90 ar  
    96   88   98 1   
    97   89   91 ar  
    98   89   99 1   
    99   90   91 ar  
   100   90  100 1   
   101   91   92 1   
   102   92  101 1   
   103  102  103 1   
   104  102  110 1   
   105  103  104 1   
   106  103  106 1   
   107  103  111 1   
   108  104  105 2   
   109  104  121 1   
   110  106  107 1   
   111  106  108 1   
   112  106  112 1   
   113  107  109 1   
   114  107  113 1   
   115  107  114 1   
   116  108  115 1   
   117  108  116 1   
   118  108  117 1   
   119  109  118 1   
   120  109  119 1   
   121  109  120 1   
   122  121  122 1   
   123  121  127 1   
   124  122  123 1   
   125  122  125 1   
   126  122  128 1   
   127  123  124 2   
   128  123  132 1   
   129  125  126 1   
   130  125  129 1   
   131  125  130 1   
   132  126  131 1   
   133  132  133 1   
   134  132  137 1   
   135  133  134 1   
   136  133  136 1   
   137  133  138 1   
   138  134  135 2   
   139  134  142 1   
   140  136  139 1   
   141  136  140 1   
   142  136  141 1   
   143  142  143 1   
   144  142  147 1   
   145  143  144 1   
   146  143  146 1   
   147  143  148 1   
   148  144  145 2   
   149  144  152 1   
   150  146  149 1   
   151  146  150 1   
   152  146  151 1   
   153  152  153 1   
   154  152  161 1   
   155  153  154 1   
   156  153  156 1   
   157  153  162 1   
   158  154  155 2   
   159  154  167 1   
   160  156  157 1   
   161  156  163 1   
   162  156  164 1   
   163  157  158 1   
   164  157  165 1   
   165  157  166 1   
   166  158  159 1   
   167  158  160 1   
   168  167  168 1   
   169  167  172 1   
   170  168  169 1   
   171  168  170 1   
   172  168  171 1   
   173  174  175 1   
   174  174  176 1   
   175  177  178 1   
   176  177  179 1   
   177  180  181 1   
   178  180  182 1   
@<TRIPOS>SUBSTRUCTURE
     1 MOL         1 TEMP              0 ****  ****    0 ROOT
