@<TRIPOS>MOLECULE
MOL
  195   189     1     0     0
SMALL
resp


@<TRIPOS>ATOM
      1 C1         -2.7380    7.8650    0.4210 c3        1 MOL     -0.422280
      2 C2         -2.7630    6.3110    0.5540 c         1 MOL      0.762044
      3 O1         -2.3000    5.7260    1.5550 o         1 MOL     -0.604100
      4 H1         -3.0580    8.1490   -0.5820 hc        1 MOL      0.115327
      5 H2         -3.4130    8.3040    1.1550 hc        1 MOL      0.115327
      6 H3         -1.7260    8.2290    0.5940 hc        1 MOL      0.115327
      7 N1         -3.3590    5.5030   -0.4360 n         1 MOL     -0.752975
      8 C3         -3.4590    3.9760   -0.3090 c3        1 MOL      0.362096
      9 C4         -2.1820    3.1870   -0.5190 c         1 MOL      0.375684
     10 O2         -2.1720    2.0490   -1.0290 o         1 MOL     -0.531197
     11 C5         -4.6640    3.4530   -1.0950 c3        1 MOL     -0.561968
     12 C6         -4.9280    4.0610   -2.5600 c         1 MOL      0.829004
     13 O3         -5.0150    5.2900   -2.7400 o         1 MOL     -0.742674
     14 O4         -5.2490    3.2110   -3.4640 o         1 MOL     -0.742674
     15 H4         -3.8730    5.9120   -1.2080 hn        1 MOL      0.379390
     16 H5         -3.6960    3.8090    0.7450 h1        1 MOL      0.072900
     17 H6         -5.5640    3.7780   -0.5560 hc        1 MOL      0.146099
     18 H7         -4.7220    2.3680   -1.0590 hc        1 MOL      0.146099
     19 N2         -1.0480    3.7960   -0.2520 n         1 MOL     -0.482845
     20 C7          0.2380    3.3960   -0.7560 c3        1 MOL      0.578258
     21 C8          1.2730    3.4730    0.4100 c         1 MOL      0.486558
     22 O5          1.3180    4.4420    1.0980 o         1 MOL     -0.593142
     23 C9          0.6030    4.3470   -1.8270 c3        1 MOL     -0.126561
     24 C10        -0.2810    4.2730   -3.1000 c3        1 MOL     -0.144913
     25 C11        -0.1630    2.9150   -3.8190 c3        1 MOL      0.069980
     26 C12        -0.7340    3.1660   -5.2480 c3        1 MOL     -0.188486
     27 N3         -2.2240    3.1440   -5.1710 n4        1 MOL      0.026844
     28 H8         -1.1340    4.7440    0.1020 hn        1 MOL      0.201937
     29 H9          0.2680    2.3770   -1.1550 h1        1 MOL     -0.061995
     30 H10         1.6430    4.0950   -2.0220 hc        1 MOL      0.045646
     31 H11         0.7280    5.3530   -1.4240 hc        1 MOL      0.045646
     32 H12         0.0410    5.0840   -3.7420 hc        1 MOL      0.049580
     33 H13        -1.3430    4.4290   -2.9150 hc        1 MOL      0.049580
     34 H14        -0.6450    2.0620   -3.3520 hc        1 MOL      0.055368
     35 H15         0.8960    2.6990   -3.9530 hc        1 MOL      0.055368
     36 H16        -0.4960    2.2790   -5.8310 hx        1 MOL      0.116310
     37 H17        -0.5020    4.1180   -5.7290 hx        1 MOL      0.116310
     38 H18        -2.7740    3.0980   -6.0130 hn        1 MOL      0.209965
     39 H19        -2.6670    2.4630   -4.5710 hn        1 MOL      0.209965
     40 H20        -2.5520    4.0200   -4.8070 hn        1 MOL      0.209965
     41 N4          2.1720    2.5380    0.6300 n         1 MOL     -0.505214
     42 C13         2.3830    1.1880   -0.0000 c3        1 MOL      0.028264
     43 C14         2.7230    1.1680   -1.5160 c         1 MOL      0.551789
     44 O6          1.8480    0.7750   -2.2530 o         1 MOL     -0.561188
     45 C15         1.2300    0.3010    0.5070 c3        1 MOL     -0.147982
     46 C16         0.9140    0.2920    1.9150 c         1 MOL      0.759736
     47 O7          1.4490   -0.4570    2.7730 o         1 MOL     -0.776911
     48 O8          0.0250    1.0410    2.3100 o         1 MOL     -0.776911
     49 H21         2.7280    2.7360    1.4510 hn        1 MOL      0.289299
     50 H22         3.2030    0.6720    0.5000 h1        1 MOL      0.084977
     51 H23         1.6100   -0.6760    0.2190 hc        1 MOL      0.104056
     52 H24         0.3090    0.4830   -0.0490 hc        1 MOL      0.104056
     53 N5          3.9800    1.4670   -1.9180 n         1 MOL     -0.535397
     54 C17         5.0930    2.0840   -1.2020 c3        1 MOL      0.046356
     55 C18         6.0010    2.6510   -2.2310 c         1 MOL      0.559601
     56 O9          5.4350    3.2610   -3.1610 o         1 MOL     -0.579989
     57 H25         4.1490    1.2790   -2.8950 hn        1 MOL      0.366862
     58 H26         5.5330    1.2600   -0.6330 h1        1 MOL      0.021645
     59 H27         4.8490    2.8910   -0.5090 h1        1 MOL      0.021645
     60 N6          7.2520    2.2460   -2.3260 n         1 MOL     -0.391406
     61 C19         8.0510    1.9780   -1.1470 c3        1 MOL      0.061303
     62 C20         8.1770    0.5150   -0.8210 c         1 MOL      0.570761
     63 O10         7.7340   -0.4100   -1.4640 o         1 MOL     -0.442925
     64 C21         9.4230    2.7090   -1.2820 c3        1 MOL     -0.191113
     65 C22        10.2840    2.3990   -2.5780 c         1 MOL      0.670041
     66 O11        11.4630    1.9980   -2.4380 o         1 MOL     -0.642957
     67 O12         9.7370    2.4890   -3.7220 o         1 MOL     -0.642957
     68 H28         7.7080    2.6600   -3.1220 hn        1 MOL      0.264274
     69 H29         7.5310    2.5170   -0.3560 h1        1 MOL      0.003727
     70 H30         9.9160    2.4010   -0.3620 hc        1 MOL      0.031822
     71 H31         9.2850    3.7920   -1.2950 hc        1 MOL      0.031822
     72 N7          8.9440    0.2300    0.3050 n         1 MOL     -0.425626
     73 C23         9.1650   -1.0910    0.7690 c3        1 MOL     -0.200251
     74 C24         7.8860   -1.8060    1.3240 c         1 MOL      0.543831
     75 O13         8.0190   -2.7470    2.1590 o         1 MOL     -0.571431
     76 H32         9.3770    1.0260    0.7480 hn        1 MOL      0.295105
     77 H33         9.9480   -1.0580    1.5320 h1        1 MOL      0.152898
     78 H34         9.5980   -1.7160   -0.0090 h1        1 MOL      0.152898
     79 N8          6.6780   -1.4050    0.9410 n         1 MOL     -0.574864
     80 C25         5.4230   -2.1040    1.1870 c3        1 MOL      0.512439
     81 C26         4.5880   -2.2800   -0.0910 c         1 MOL      0.543350
     82 O14         4.6360   -1.4620   -0.9880 o         1 MOL     -0.478731
     83 C27         4.5550   -1.5460    2.2990 c3        1 MOL      0.136111
     84 C28         5.3810   -1.2910    3.5250 c3        1 MOL     -0.555583
     85 O15         3.4610   -2.3450    2.6600 oh        1 MOL     -0.667162
     86 H35         6.7700   -0.9550    0.0320 hn        1 MOL      0.169222
     87 H36         5.7820   -3.1110    1.4300 h1        1 MOL     -0.020285
     88 H37         4.1850   -0.5840    1.9250 h1        1 MOL     -0.004161
     89 H38         2.7620   -1.7580    2.9540 ho        1 MOL      0.503789
     90 H39         5.7060   -2.2180    3.9950 hc        1 MOL      0.155446
     91 H40         6.2690   -0.7070    3.2770 hc        1 MOL      0.155446
     92 H41         4.6920   -0.7640    4.1710 hc        1 MOL      0.155446
     93 N9          3.8160   -3.3120   -0.2600 n         1 MOL     -0.523665
     94 C29         3.0530   -3.7870   -1.4190 c3        1 MOL      0.011041
     95 C30         1.5740   -4.1000   -1.2370 c         1 MOL      0.569656
     96 O16         0.8260   -4.5760   -2.1020 o         1 MOL     -0.601304
     97 C31         3.7130   -5.0610   -2.1000 c3        1 MOL     -0.096348
     98 C32         4.1250   -6.2650   -1.1380 c3        1 MOL      0.121158
     99 C33         4.9040   -4.6830   -2.9510 c3        1 MOL     -0.266096
    100 C34         2.9400   -6.9810   -0.4840 c3        1 MOL     -0.031316
    101 H42         3.8430   -3.8850    0.5710 hn        1 MOL      0.275765
    102 H43         3.1830   -2.9280   -2.0580 h1        1 MOL      0.138645
    103 H44         2.9750   -5.3590   -2.8460 hc        1 MOL      0.097413
    104 H45         4.8100   -5.9840   -0.3360 hc        1 MOL      0.003098
    105 H46         4.6020   -7.0890   -1.6700 hc        1 MOL      0.003098
    106 H47         4.6550   -3.9740   -3.7330 hc        1 MOL      0.073152
    107 H48         5.7060   -4.1950   -2.3820 hc        1 MOL      0.073152
    108 H49         5.3620   -5.5400   -3.4440 hc        1 MOL      0.073152
    109 H50         2.5940   -6.3410    0.3220 hc        1 MOL     -0.012158
    110 H51         2.1200   -7.0600   -1.1990 hc        1 MOL     -0.012158
    111 H52         3.3060   -7.9010   -0.0310 hc        1 MOL     -0.012158
    112 N10         1.0030   -3.7240   -0.1270 n         1 MOL     -0.289461
    113 C35        -0.4370   -3.7100    0.2260 c3        1 MOL      0.028898
    114 C36        -1.2470   -3.0350   -0.8370 c         1 MOL      0.419443
    115 O17        -1.2230   -1.7650   -0.9770 o         1 MOL     -0.503801
    116 C37        -0.5730   -2.8990    1.5420 c3        1 MOL      0.347598
    117 C38         0.0910   -3.6590    2.6930 c3        1 MOL     -0.456603
    118 O18        -1.9110   -2.7570    1.8720 oh        1 MOL     -0.679079
    119 H53         1.5510   -3.1660    0.5190 hn        1 MOL      0.116393
    120 H54        -0.8080   -4.7260    0.3230 h1        1 MOL      0.081380
    121 H55        -0.1400   -1.9140    1.3800 h1        1 MOL      0.036555
    122 H56        -1.9630   -2.1180    2.5840 ho        1 MOL      0.463430
    123 H57        -0.2680   -4.6850    2.6800 hc        1 MOL      0.129853
    124 H58         1.1780   -3.6330    2.6790 hc        1 MOL      0.129853
    125 H59        -0.3000   -3.1460    3.5760 hc        1 MOL      0.129853
    126 N11        -2.0190   -3.9270   -1.5200 n         1 MOL     -0.167693
    127 C39        -3.3950   -3.5770   -1.9780 c3        1 MOL     -0.262884
    128 C40        -4.4340   -3.8190   -0.8030 c         1 MOL      0.574150
    129 O19        -4.5500   -4.9640   -0.3310 o         1 MOL     -0.538451
    130 C41        -3.7420   -4.3900   -3.2560 c3        1 MOL      0.466654
    131 C42        -2.6610   -4.1070   -4.2970 c3        1 MOL     -0.403095
    132 O20        -4.9870   -3.9070   -3.7340 oh        1 MOL     -0.652729
    133 H60        -1.8640   -4.9000   -1.3460 hn        1 MOL      0.212111
    134 H61        -3.3840   -2.5040   -2.1580 h1        1 MOL      0.093062
    135 H62        -3.7800   -5.4690   -3.1080 h1        1 MOL      0.046580
    136 H63        -4.9020   -2.9850   -3.9860 ho        1 MOL      0.384487
    137 H64        -1.6560   -4.3620   -3.9730 hc        1 MOL      0.099870
    138 H65        -2.9310   -4.6740   -5.1890 hc        1 MOL      0.099870
    139 H66        -2.7150   -3.0460   -4.5120 hc        1 MOL      0.099870
    140 N12        -5.2750   -2.8110   -0.5570 n         1 MOL     -0.439612
    141 C43        -6.5020   -2.9620    0.2580 c3        1 MOL     -0.009121
    142 C44        -6.8200   -1.7570    1.1320 c         1 MOL      0.500439
    143 O21        -7.9110   -1.7680    1.7370 o         1 MOL     -0.529242
    144 C45        -7.6480   -3.3080   -0.7350 c3        1 MOL     -0.254581
    145 C46        -8.2010   -2.2080   -1.6280 c3        1 MOL      0.171543
    146 C47        -9.2040   -2.6020   -2.7580 c3        1 MOL     -0.073061
    147 C48        -9.5850   -1.3910   -3.6270 c3        1 MOL      0.044014
    148 N13       -10.0790   -1.7560   -5.0440 n4        1 MOL     -0.296961
    149 H67        -5.1570   -1.9830   -1.1170 hn        1 MOL      0.321078
    150 H68        -6.3840   -3.7660    0.9890 h1        1 MOL      0.160925
    151 H69        -8.4990   -3.6840   -0.1640 hc        1 MOL      0.088860
    152 H70        -7.2870   -4.1140   -1.3770 hc        1 MOL      0.088860
    153 H71        -7.2730   -1.8240   -2.0510 hc        1 MOL     -0.031569
    154 H72        -8.5100   -1.4310   -0.9300 hc        1 MOL     -0.031569
    155 H73       -10.1450   -2.9680   -2.3370 hc        1 MOL      0.042700
    156 H74        -8.8230   -3.4350   -3.3490 hc        1 MOL      0.042700
    157 H75        -8.7280   -0.7390   -3.7780 hx        1 MOL      0.088360
    158 H76       -10.3430   -0.8280   -3.0780 hx        1 MOL      0.088360
    159 H77       -11.0400   -2.0720   -4.9560 hn        1 MOL      0.286177
    160 H78       -10.1570   -0.9520   -5.6510 hn        1 MOL      0.286177
    161 H79        -9.5010   -2.4970   -5.3960 hn        1 MOL      0.286177
    162 N14        -5.8460   -0.8300    1.4110 n         1 MOL     -0.301119
    163 C49        -5.9190    0.2290    2.4490 c3        1 MOL     -0.040081
    164 C50        -6.6830    1.4550    1.9770 c         1 MOL      0.479835
    165 O22        -6.6240    1.8220    0.8040 o         1 MOL     -0.489782
    166 C51        -4.5790    0.4980    3.1380 c3        1 MOL      0.065411
    167 C52        -4.1690   -0.6250    4.0690 c3        1 MOL      0.143111
    168 C53        -2.7440   -0.3970    4.5660 c         1 MOL      0.900598
    169 O23        -2.5260    0.4750    5.4510 o         1 MOL     -0.863110
    170 O24        -1.8580   -1.0880    4.0900 o         1 MOL     -0.863110
    171 H80        -5.0080   -0.9120    0.8540 hn        1 MOL      0.213115
    172 H81        -6.5520   -0.2580    3.2000 h1        1 MOL      0.049594
    173 H82        -4.7650    1.3360    3.8160 hc        1 MOL      0.018994
    174 H83        -3.7410    0.8000    2.5070 hc        1 MOL      0.018994
    175 H84        -4.2420   -1.6040    3.6100 hc        1 MOL     -0.066616
    176 H85        -4.8050   -0.5810    4.9560 hc        1 MOL     -0.066616
    177 N15        -7.3060    2.2230    2.8970 n         1 MOL     -0.335535
    178 C54        -8.0940    3.4400    2.5940 c3        1 MOL     -0.253682
    179 H86        -8.6660    3.2830    1.6800 h1        1 MOL      0.126921
    180 H87        -8.7760    3.6460    3.4190 h1        1 MOL      0.126921
    181 H88        -7.4200    4.2860    2.4600 h1        1 MOL      0.126921
    182 H89        -7.5650    1.7120    3.7330 hn        1 MOL      0.263867
    183 Ca1         0.0780    0.7290    4.8830 Ca        1 MOL      1.710466
    184 O25        -1.5260    2.7160    3.2850 oh        1 MOL     -0.847903
    185 H90        -1.1080    3.5700    3.3140 ho        1 MOL      0.419985
    186 H91        -0.9750    2.1870    2.7060 ho        1 MOL      0.419985
    187 O26         2.5240    0.8820    5.8440 oh        1 MOL     -0.847903
    188 H92         3.2750    1.4540    5.6640 ho        1 MOL      0.419985
    189 H93         2.9260    0.0660    6.1490 ho        1 MOL      0.419985
    190 O27         1.7340    2.7920    4.0680 oh        1 MOL     -0.847903
    191 H94         1.3390    3.5340    3.6040 ho        1 MOL      0.419985
    192 H95         2.6850    2.9340    3.9810 ho        1 MOL      0.419985
    193 O28         0.7960   -1.8810    5.9770 oh        1 MOL     -0.847903
    194 H96         1.6060   -1.8090    6.4700 ho        1 MOL      0.419985
    195 H97         0.1140   -1.6180    6.5960 ho        1 MOL      0.419985
@<TRIPOS>BOND
     1    1    2 1   
     2    1    4 1   
     3    1    5 1   
     4    1    6 1   
     5    2    3 2   
     6    2    7 1   
     7    7    8 1   
     8    7   15 1   
     9    8    9 1   
    10    8   11 1   
    11    8   16 1   
    12    9   10 2   
    13    9   19 1   
    14   11   12 1   
    15   11   17 1   
    16   11   18 1   
    17   12   13 1   
    18   12   14 1   
    19   19   20 1   
    20   19   28 1   
    21   20   21 1   
    22   20   23 1   
    23   20   29 1   
    24   21   22 2   
    25   21   41 1   
    26   23   24 1   
    27   23   30 1   
    28   23   31 1   
    29   24   25 1   
    30   24   32 1   
    31   24   33 1   
    32   25   26 1   
    33   25   34 1   
    34   25   35 1   
    35   26   27 1   
    36   26   36 1   
    37   26   37 1   
    38   27   38 1   
    39   27   39 1   
    40   27   40 1   
    41   41   42 1   
    42   41   49 1   
    43   42   43 1   
    44   42   45 1   
    45   42   50 1   
    46   43   44 2   
    47   43   53 1   
    48   45   46 1   
    49   45   51 1   
    50   45   52 1   
    51   46   47 1   
    52   46   48 1   
    53   53   54 1   
    54   53   57 1   
    55   54   55 1   
    56   54   58 1   
    57   54   59 1   
    58   55   56 2   
    59   55   60 1   
    60   60   61 1   
    61   60   68 1   
    62   61   62 1   
    63   61   64 1   
    64   61   69 1   
    65   62   63 2   
    66   62   72 1   
    67   64   65 1   
    68   64   70 1   
    69   64   71 1   
    70   65   66 1   
    71   65   67 1   
    72   72   73 1   
    73   72   76 1   
    74   73   74 1   
    75   73   77 1   
    76   73   78 1   
    77   74   75 2   
    78   74   79 1   
    79   79   80 1   
    80   79   86 1   
    81   80   81 1   
    82   80   83 1   
    83   80   87 1   
    84   81   82 2   
    85   81   93 1   
    86   83   84 1   
    87   83   85 1   
    88   83   88 1   
    89   84   90 1   
    90   84   91 1   
    91   84   92 1   
    92   85   89 1   
    93   93   94 1   
    94   93  101 1   
    95   94   95 1   
    96   94   97 1   
    97   94  102 1   
    98   95   96 2   
    99   95  112 1   
   100   97   98 1   
   101   97   99 1   
   102   97  103 1   
   103   98  100 1   
   104   98  104 1   
   105   98  105 1   
   106   99  106 1   
   107   99  107 1   
   108   99  108 1   
   109  100  109 1   
   110  100  110 1   
   111  100  111 1   
   112  112  113 1   
   113  112  119 1   
   114  113  114 1   
   115  113  116 1   
   116  113  120 1   
   117  114  115 2   
   118  114  126 1   
   119  116  117 1   
   120  116  118 1   
   121  116  121 1   
   122  117  123 1   
   123  117  124 1   
   124  117  125 1   
   125  118  122 1   
   126  126  127 1   
   127  126  133 1   
   128  127  128 1   
   129  127  130 1   
   130  127  134 1   
   131  128  129 2   
   132  128  140 1   
   133  130  131 1   
   134  130  132 1   
   135  130  135 1   
   136  131  137 1   
   137  131  138 1   
   138  131  139 1   
   139  132  136 1   
   140  140  141 1   
   141  140  149 1   
   142  141  142 1   
   143  141  144 1   
   144  141  150 1   
   145  142  143 2   
   146  142  162 1   
   147  144  145 1   
   148  144  151 1   
   149  144  152 1   
   150  145  146 1   
   151  145  153 1   
   152  145  154 1   
   153  146  147 1   
   154  146  155 1   
   155  146  156 1   
   156  147  148 1   
   157  147  157 1   
   158  147  158 1   
   159  148  159 1   
   160  148  160 1   
   161  148  161 1   
   162  162  163 1   
   163  162  171 1   
   164  163  164 1   
   165  163  166 1   
   166  163  172 1   
   167  164  165 2   
   168  164  177 1   
   169  166  167 1   
   170  166  173 1   
   171  166  174 1   
   172  167  168 1   
   173  167  175 1   
   174  167  176 1   
   175  168  169 1   
   176  168  170 1   
   177  177  178 1   
   178  177  182 1   
   179  178  179 1   
   180  178  180 1   
   181  178  181 1   
   182  184  185 1   
   183  184  186 1   
   184  187  188 1   
   185  187  189 1   
   186  190  191 1   
   187  190  192 1   
   188  193  194 1   
   189  193  195 1   
@<TRIPOS>SUBSTRUCTURE
     1 MOL         1 TEMP              0 ****  ****    0 ROOT
