@<TRIPOS>MOLECULE
MOL
  188   182     1     0     0
SMALL
resp


@<TRIPOS>ATOM
      1 C1         -4.4230    0.8490   -4.7730 c3        1 MOL     -0.445629
      2 C2         -4.6390    0.7200   -3.2430 c         1 MOL      0.746136
      3 O1         -3.8810    0.0360   -2.5820 o         1 MOL     -0.561868
      4 H1         -4.2190    1.8900   -5.0240 hc        1 MOL      0.108417
      5 H2         -3.5760    0.2310   -5.0740 hc        1 MOL      0.108417
      6 H3         -5.3200    0.5180   -5.2970 hc        1 MOL      0.108417
      7 N1         -5.7090    1.3420   -2.6800 n         1 MOL     -0.674004
      8 C3         -6.0680    1.0940   -1.3140 c3        1 MOL      0.100141
      9 C4         -6.2920   -0.3950   -0.9790 c         1 MOL      0.378649
     10 O2         -6.2810   -0.7710    0.2180 o         1 MOL     -0.472782
     11 C5         -5.1080    1.9240   -0.3970 c3        1 MOL     -0.036048
     12 C6         -5.7950    2.5150    0.8280 c         1 MOL      0.607029
     13 O3         -5.1390    2.9880    1.7830 o         1 MOL     -0.620624
     14 O4         -7.0090    2.8190    0.6990 o         1 MOL     -0.620624
     15 H4         -6.2530    2.0310   -3.1870 hn        1 MOL      0.342648
     16 H5         -7.0810    1.4800   -1.2370 h1        1 MOL      0.042291
     17 H6         -4.6050    2.7400   -0.9190 hc        1 MOL      0.043216
     18 H7         -4.2980    1.2870   -0.0240 hc        1 MOL      0.043216
     19 N2         -6.3640   -1.2960   -1.9990 n         1 MOL     -0.268003
     20 C7         -6.5520   -2.7200   -1.7620 c3        1 MOL      0.056587
     21 C8         -5.1790   -3.3120   -1.2990 c         1 MOL      0.489953
     22 O5         -4.4670   -3.8790   -2.1440 o         1 MOL     -0.551785
     23 C9         -6.9920   -3.3360   -3.1040 c3        1 MOL      0.034263
     24 C10        -8.2210   -2.5660   -3.5900 c3        1 MOL      0.015862
     25 C11        -9.0090   -3.3890   -4.6230 c3        1 MOL     -0.013137
     26 C12       -10.3020   -2.7320   -5.1530 c3        1 MOL      0.051223
     27 N3        -10.7970   -3.3910   -6.3430 n4        1 MOL     -0.217806
     28 H8         -6.4560   -0.9580   -2.9480 hn        1 MOL      0.208788
     29 H9         -7.2810   -2.9230   -0.9760 h1        1 MOL      0.045521
     30 H10        -7.2260   -4.3800   -2.8920 hc        1 MOL      0.014160
     31 H11        -6.1740   -3.4000   -3.8140 hc        1 MOL      0.014160
     32 H12        -7.9050   -1.6810   -4.1250 hc        1 MOL     -0.000805
     33 H13        -8.8490   -2.2840   -2.7400 hc        1 MOL     -0.000805
     34 H14        -9.3940   -4.2840   -4.1520 hc        1 MOL      0.016093
     35 H15        -8.3980   -3.7160   -5.4580 hc        1 MOL      0.016093
     36 H16       -10.0620   -1.6960   -5.3630 hx        1 MOL      0.067048
     37 H17       -10.9910   -2.7120   -4.3060 hx        1 MOL      0.067048
     38 H18       -11.7370   -3.1520   -6.6140 hn        1 MOL      0.262497
     39 H19       -10.1660   -3.2910   -7.1310 hn        1 MOL      0.262497
     40 H20       -10.8450   -4.3750   -6.1500 hn        1 MOL      0.262497
     41 N4         -4.7770   -3.1550   -0.0420 n         1 MOL     -0.434076
     42 C13        -3.5340   -3.5660    0.5910 c3        1 MOL      0.077886
     43 C14        -3.7050   -3.6590    2.1470 c         1 MOL      0.488231
     44 O6         -4.5130   -3.0090    2.7030 o         1 MOL     -0.481095
     45 C15        -2.4740   -2.6270    0.0250 c3        1 MOL     -0.025649
     46 C16        -1.1160   -2.7840    0.7480 c         1 MOL      0.571043
     47 O7         -0.9420   -2.1780    1.8400 o         1 MOL     -0.686062
     48 O8         -0.1980   -3.4280    0.2110 o         1 MOL     -0.686062
     49 H21        -5.3460   -2.5570    0.5480 hn        1 MOL      0.255584
     50 H22        -3.3520   -4.6180    0.3620 h1        1 MOL      0.029464
     51 H23        -2.7730   -1.5950    0.1880 hc        1 MOL      0.080202
     52 H24        -2.2780   -2.8050   -1.0340 hc        1 MOL      0.080202
     53 N5         -2.9480   -4.5200    2.7260 n         1 MOL     -0.401040
     54 C17        -2.8330   -4.6680    4.2120 c3        1 MOL      0.008686
     55 C18        -2.5420   -3.4300    5.0240 c         1 MOL      0.438224
     56 O9         -3.0430   -3.3900    6.1760 o         1 MOL     -0.565080
     57 H25        -2.3380   -5.0260    2.0950 hn        1 MOL      0.280789
     58 H26        -2.0330   -5.3740    4.4580 h1        1 MOL      0.070383
     59 H27        -3.7290   -5.2080    4.5150 h1        1 MOL      0.070383
     60 N6         -1.7980   -2.4600    4.5150 n         1 MOL     -0.113549
     61 C19        -1.6780   -1.1690    5.2590 c3        1 MOL      0.000437
     62 C20        -2.0840    0.0790    4.4630 c         1 MOL      0.520014
     63 O10        -2.3690    1.1610    4.9880 o         1 MOL     -0.571447
     64 C21        -0.2440   -1.1040    5.9740 c3        1 MOL     -0.213320
     65 C22         0.8440   -0.6770    4.9830 c         1 MOL      0.519871
     66 N7          1.8320    0.1110    5.3270 n         1 MOL     -0.652889
     67 O11         0.6630   -1.0500    3.7920 o         1 MOL     -0.520670
     68 H28        -1.4070   -2.5500    3.5930 hn        1 MOL      0.057390
     69 H29        -2.4150   -1.1280    6.0670 h1        1 MOL      0.104519
     70 H30        -0.0620   -2.0730    6.4270 hc        1 MOL      0.079505
     71 H31        -0.3540   -0.4150    6.8060 hc        1 MOL      0.079505
     72 H32         1.9680    0.3240    6.3070 hn        1 MOL      0.351327
     73 H33         2.5800    0.1430    4.6550 hn        1 MOL      0.351327
     74 N8         -2.2090   -0.0170    3.1900 n         1 MOL     -0.185663
     75 C23        -2.7500    1.0070    2.3430 c3        1 MOL     -0.321940
     76 C24        -1.7130    2.0480    1.9910 c         1 MOL      0.758458
     77 O12        -0.5220    2.0050    2.3320 o         1 MOL     -0.579926
     78 H34        -1.7830   -0.8180    2.7360 hn        1 MOL      0.169157
     79 H35        -3.4900    1.4990    2.9780 h1        1 MOL      0.133257
     80 H36        -3.0950    0.4650    1.4620 h1        1 MOL      0.133257
     81 N9         -2.0820    2.9120    1.1100 n         1 MOL     -0.636862
     82 C25        -1.3000    3.7470    0.1350 c3        1 MOL      0.253324
     83 C26        -0.4250    2.8820   -0.6690 c         1 MOL      0.322041
     84 O13        -0.7260    1.7160   -0.9390 o         1 MOL     -0.491752
     85 C27        -2.1860    4.7660   -0.5620 c3        1 MOL      0.031404
     86 C28        -2.4100    6.0780    0.1610 ca        1 MOL      0.121089
     87 C29        -3.6410    6.4030    0.7590 ca        1 MOL     -0.244206
     88 C30        -1.4160    7.1010    0.2070 ca        1 MOL     -0.244206
     89 C31        -3.9840    7.6810    1.2400 ca        1 MOL     -0.086454
     90 C32        -1.6370    8.3210    0.8900 ca        1 MOL     -0.086454
     91 C33        -2.9260    8.6340    1.3290 ca        1 MOL      0.087107
     92 O14        -3.1820    9.7560    2.1230 oh        1 MOL     -0.368864
     93 H37        -3.0650    2.8960    0.8730 hn        1 MOL      0.416120
     94 H38        -0.6190    4.2750    0.8070 h1        1 MOL      0.005644
     95 H39        -3.0740    4.2840   -0.9930 hc        1 MOL     -0.005905
     96 H40        -1.6530    5.0810   -1.4690 hc        1 MOL     -0.005905
     97 H41        -4.4020    5.6340    0.6500 ha        1 MOL      0.117253
     98 H42        -0.4050    6.8920   -0.1280 ha        1 MOL      0.117253
     99 H43        -4.9570    8.0350    1.5570 ha        1 MOL      0.129150
    100 H44        -0.8820    9.0390    1.1820 ha        1 MOL      0.129150
    101 H45        -2.4350   10.3590    2.0690 ho        1 MOL      0.293479
    102 N10         0.8180    3.3520   -1.0800 n         1 MOL     -0.305704
    103 C34         1.8710    2.5220   -1.7640 c3        1 MOL     -0.158498
    104 C35         3.1650    2.4220   -0.9180 c         1 MOL      0.538462
    105 O15         3.7440    1.3640   -0.7070 o         1 MOL     -0.450041
    106 C36         2.1070    2.9930   -3.1290 c3        1 MOL      0.010931
    107 C37         0.7930    2.8740   -4.0210 c3        1 MOL     -0.078960
    108 C38         3.2670    2.2360   -3.8680 c3        1 MOL     -0.444944
    109 C39         0.9820    3.4950   -5.3910 c3        1 MOL     -0.056021
    110 H46         1.0600    4.2710   -0.7510 hn        1 MOL      0.166442
    111 H47         1.4350    1.5270   -1.8360 h1        1 MOL      0.166734
    112 H48         2.3780    4.0490   -3.1090 hc        1 MOL      0.022305
    113 H49        -0.0750    3.2910   -3.5040 hc        1 MOL      0.090449
    114 H50         0.4700    1.8610   -4.2480 hc        1 MOL      0.090449
    115 H51         3.0250    1.1980   -4.0660 hc        1 MOL      0.133862
    116 H52         3.5650    2.7570   -4.7870 hc        1 MOL      0.133862
    117 H53         4.1560    2.1960   -3.2460 hc        1 MOL      0.133862
    118 H54         1.1830    4.5530   -5.2000 hc        1 MOL      0.015672
    119 H55         1.7700    3.0520   -6.0070 hc        1 MOL      0.015672
    120 H56         0.0160    3.5130   -5.8760 hc        1 MOL      0.015672
    121 N11         3.5980    3.5650   -0.3730 n         1 MOL     -0.413270
    122 C40         4.7470    3.7050    0.5640 c3        1 MOL     -0.007365
    123 C41         6.0760    3.3230   -0.0980 c         1 MOL      0.291555
    124 O16         7.0310    2.9780    0.6120 o         1 MOL     -0.444196
    125 C42         4.8150    5.1640    0.9320 c3        1 MOL      0.237158
    126 O17         3.8140    5.5200    1.8730 oh        1 MOL     -0.581589
    127 H57         2.9900    4.3720   -0.4090 hn        1 MOL      0.314909
    128 H58         4.5340    3.0250    1.3860 h1        1 MOL      0.152609
    129 H59         4.6880    5.8290    0.0810 h1        1 MOL      0.007754
    130 H60         5.8260    5.3500    1.3140 h1        1 MOL      0.007754
    131 H61         3.9340    6.4640    1.9020 ho        1 MOL      0.383848
    132 N12         6.0960    3.2800   -1.4660 n         1 MOL     -0.272626
    133 C43         7.1390    2.6310   -2.3040 c3        1 MOL      0.245879
    134 C44         7.4790    1.2160   -2.0290 c         1 MOL      0.477909
    135 O18         8.5970    0.8150   -2.3400 o         1 MOL     -0.538109
    136 C45         8.3820    3.4830   -2.4140 c3        1 MOL     -0.382790
    137 H62         5.3400    3.7900   -1.9150 hn        1 MOL      0.201295
    138 H63         6.6980    2.5990   -3.3070 h1        1 MOL      0.036350
    139 H64         8.0440    4.4780   -2.7120 hc        1 MOL      0.105957
    140 H65         8.8540    3.5560   -1.4290 hc        1 MOL      0.105957
    141 H66         9.0620    3.1420   -3.1870 hc        1 MOL      0.105957
    142 N13         6.6110    0.4730   -1.3840 n         1 MOL     -0.455496
    143 C46         7.0390   -0.7070   -0.6830 c3        1 MOL      0.568665
    144 C47         6.3670   -1.9370   -1.3490 c         1 MOL      0.204461
    145 O19         5.3290   -1.8450   -2.0020 o         1 MOL     -0.460479
    146 C48         6.6570   -0.6610    0.8150 c3        1 MOL     -0.360914
    147 H67         5.7590    0.9180   -1.0790 hn        1 MOL      0.145562
    148 H68         8.1130   -0.8710   -0.7740 h1        1 MOL     -0.063229
    149 H69         7.2300    0.1520    1.2630 hc        1 MOL      0.096203
    150 H70         5.6110   -0.3710    0.9440 hc        1 MOL      0.096203
    151 H71         6.9020   -1.5870    1.3300 hc        1 MOL      0.096203
    152 N14         6.9170   -3.1180   -1.0410 n         1 MOL     -0.177039
    153 C49         6.5000   -4.4060   -1.6300 c3        1 MOL     -0.298184
    154 C50         6.5150   -4.5400   -3.1840 c         1 MOL      0.444522
    155 O20         6.1180   -5.6000   -3.7430 o         1 MOL     -0.496674
    156 C51         5.2070   -4.7920   -1.0680 c3        1 MOL      0.215335
    157 C52         5.2450   -4.9460    0.4570 c3        1 MOL     -0.034155
    158 C53         3.8460   -5.1650    1.1070 c         1 MOL      0.618188
    159 O21         2.9490   -4.2900    0.9220 o         1 MOL     -0.686816
    160 O22         3.5330   -6.1390    1.7830 o         1 MOL     -0.686816
    161 H72         7.8290   -3.0980   -0.6110 hn        1 MOL      0.228788
    162 H73         7.2520   -5.1610   -1.4030 h1        1 MOL      0.133310
    163 H74         4.9310   -5.8190   -1.3390 hc        1 MOL      0.009636
    164 H75         4.4240   -4.0960   -1.3610 hc        1 MOL      0.009636
    165 H76         5.6520   -4.0150    0.8400 hc        1 MOL     -0.036940
    166 H77         6.0160   -5.5810    0.8990 hc        1 MOL     -0.036940
    167 N15         7.0960   -3.4980   -3.8190 n         1 MOL     -0.179142
    168 C54         7.1680   -3.3620   -5.2580 c3        1 MOL     -0.199684
    169 H78         7.2960   -2.3100   -5.5170 h1        1 MOL      0.094245
    170 H79         8.0160   -3.9330   -5.6360 h1        1 MOL      0.094245
    171 H80         6.2480   -3.7370   -5.7060 h1        1 MOL      0.094245
    172 H81         7.5570   -2.7410   -3.3320 hn        1 MOL      0.203262
    173 Ca1         1.6750   -2.1520    1.7250 Ca        1 MOL      1.751143
    174 O23         3.0050   -1.7520   -0.6340 oh        1 MOL     -0.870793
    175 H82         2.5040   -1.3460   -1.3400 ho        1 MOL      0.419549
    176 H83         3.8670   -1.9090   -1.0000 ho        1 MOL      0.419549
    177 O24         2.9140    0.4450    1.7120 oh        1 MOL     -0.870793
    178 H84         3.0260    0.7470    0.8140 ho        1 MOL      0.419549
    179 H85         2.6440    1.2220    2.1930 ho        1 MOL      0.419549
    180 O25         3.9080   -2.0530    3.7570 oh        1 MOL     -0.870793
    181 H86         3.9700   -2.9650    4.0530 ho        1 MOL      0.419549
    182 H87         4.6920   -1.6350    4.1010 ho        1 MOL      0.419549
    183 O26         1.7630   -4.3630    3.5580 oh        1 MOL     -0.870793
    184 H88         2.2840   -4.9380    2.9970 ho        1 MOL      0.419549
    185 H89         1.3460   -4.9530    4.1810 ho        1 MOL      0.419549
    186 O27         0.6490   -0.4130   -0.1050 oh        1 MOL     -0.870793
    187 H90         0.2490    0.3480    0.3130 ho        1 MOL      0.419549
    188 H91         0.2000   -0.4790   -0.9530 ho        1 MOL      0.419549
@<TRIPOS>BOND
     1    1    2 1   
     2    1    4 1   
     3    1    5 1   
     4    1    6 1   
     5    2    3 2   
     6    2    7 1   
     7    7    8 1   
     8    7   15 1   
     9    8    9 1   
    10    8   11 1   
    11    8   16 1   
    12    9   10 2   
    13    9   19 1   
    14   11   12 1   
    15   11   17 1   
    16   11   18 1   
    17   12   13 1   
    18   12   14 1   
    19   19   20 1   
    20   19   28 1   
    21   20   21 1   
    22   20   23 1   
    23   20   29 1   
    24   21   22 2   
    25   21   41 1   
    26   23   24 1   
    27   23   30 1   
    28   23   31 1   
    29   24   25 1   
    30   24   32 1   
    31   24   33 1   
    32   25   26 1   
    33   25   34 1   
    34   25   35 1   
    35   26   27 1   
    36   26   36 1   
    37   26   37 1   
    38   27   38 1   
    39   27   39 1   
    40   27   40 1   
    41   41   42 1   
    42   41   49 1   
    43   42   43 1   
    44   42   45 1   
    45   42   50 1   
    46   43   44 2   
    47   43   53 1   
    48   45   46 1   
    49   45   51 1   
    50   45   52 1   
    51   46   47 1   
    52   46   48 1   
    53   53   54 1   
    54   53   57 1   
    55   54   55 1   
    56   54   58 1   
    57   54   59 1   
    58   55   56 2   
    59   55   60 1   
    60   60   61 1   
    61   60   68 1   
    62   61   62 1   
    63   61   64 1   
    64   61   69 1   
    65   62   63 2   
    66   62   74 1   
    67   64   65 1   
    68   64   70 1   
    69   64   71 1   
    70   65   66 1   
    71   65   67 2   
    72   66   72 1   
    73   66   73 1   
    74   74   75 1   
    75   74   78 1   
    76   75   76 1   
    77   75   79 1   
    78   75   80 1   
    79   76   77 2   
    80   76   81 1   
    81   81   82 1   
    82   81   93 1   
    83   82   83 1   
    84   82   85 1   
    85   82   94 1   
    86   83   84 2   
    87   83  102 1   
    88   85   86 1   
    89   85   95 1   
    90   85   96 1   
    91   86   87 ar  
    92   86   88 ar  
    93   87   89 ar  
    94   87   97 1   
    95   88   90 ar  
    96   88   98 1   
    97   89   91 ar  
    98   89   99 1   
    99   90   91 ar  
   100   90  100 1   
   101   91   92 1   
   102   92  101 1   
   103  102  103 1   
   104  102  110 1   
   105  103  104 1   
   106  103  106 1   
   107  103  111 1   
   108  104  105 2   
   109  104  121 1   
   110  106  107 1   
   111  106  108 1   
   112  106  112 1   
   113  107  109 1   
   114  107  113 1   
   115  107  114 1   
   116  108  115 1   
   117  108  116 1   
   118  108  117 1   
   119  109  118 1   
   120  109  119 1   
   121  109  120 1   
   122  121  122 1   
   123  121  127 1   
   124  122  123 1   
   125  122  125 1   
   126  122  128 1   
   127  123  124 2   
   128  123  132 1   
   129  125  126 1   
   130  125  129 1   
   131  125  130 1   
   132  126  131 1   
   133  132  133 1   
   134  132  137 1   
   135  133  134 1   
   136  133  136 1   
   137  133  138 1   
   138  134  135 2   
   139  134  142 1   
   140  136  139 1   
   141  136  140 1   
   142  136  141 1   
   143  142  143 1   
   144  142  147 1   
   145  143  144 1   
   146  143  146 1   
   147  143  148 1   
   148  144  145 2   
   149  144  152 1   
   150  146  149 1   
   151  146  150 1   
   152  146  151 1   
   153  152  153 1   
   154  152  161 1   
   155  153  154 1   
   156  153  156 1   
   157  153  162 1   
   158  154  155 2   
   159  154  167 1   
   160  156  157 1   
   161  156  163 1   
   162  156  164 1   
   163  157  158 1   
   164  157  165 1   
   165  157  166 1   
   166  158  159 1   
   167  158  160 1   
   168  167  168 1   
   169  167  172 1   
   170  168  169 1   
   171  168  170 1   
   172  168  171 1   
   173  174  175 1   
   174  174  176 1   
   175  177  178 1   
   176  177  179 1   
   177  180  181 1   
   178  180  182 1   
   179  183  184 1   
   180  183  185 1   
   181  186  187 1   
   182  186  188 1   
@<TRIPOS>SUBSTRUCTURE
     1 MOL         1 TEMP              0 ****  ****    0 ROOT
