@<TRIPOS>MOLECULE
MOL
  189   185     1     0     0
SMALL
resp


@<TRIPOS>ATOM
      1 C1          8.9420    1.9550    1.6910 c3        1 MOL     -0.492847
      2 C2          7.9200    1.1200    0.9050 c         1 MOL      0.698226
      3 O1          6.8560    0.6640    1.4880 o         1 MOL     -0.727047
      4 H1          9.8690    1.3900    1.7970 hc        1 MOL      0.134005
      5 H2          9.1430    2.8830    1.1550 hc        1 MOL      0.134005
      6 H3          8.5420    2.1840    2.6790 hc        1 MOL      0.134005
      7 N1          8.1880    0.8290   -0.3660 n         1 MOL     -0.462829
      8 C3          7.2760    0.2460   -1.3770 c3        1 MOL      0.141111
      9 C4          6.9520   -1.2640   -1.1400 c         1 MOL      0.481149
     10 O2          7.4090   -2.0770   -1.8830 o         1 MOL     -0.508252
     11 C5          7.6940    0.6720   -2.8110 c3        1 MOL     -0.107782
     12 C6          9.1390    0.5710   -3.2200 c         1 MOL      0.607480
     13 O3          9.3960    0.2590   -4.4250 o         1 MOL     -0.636521
     14 O4         10.1020    0.6330   -2.3660 o         1 MOL     -0.636521
     15 H4          9.1170    1.0840   -0.6720 hn        1 MOL      0.203385
     16 H5          6.2700    0.6530   -1.2930 h1        1 MOL     -0.006718
     17 H6          7.4540    1.7320   -2.9430 hc        1 MOL      0.052297
     18 H7          7.0140    0.1530   -3.4750 hc        1 MOL      0.052297
     19 N2          6.3670   -1.6740    0.0110 n         1 MOL     -0.270966
     20 C7          6.1860   -3.0390    0.4430 c3        1 MOL     -0.042183
     21 C8          4.6950   -3.5230    0.5910 c         1 MOL      0.578190
     22 O5          4.4880   -4.7180    0.4890 o         1 MOL     -0.557538
     23 C9          7.0770   -3.1420    1.7090 c3        1 MOL      0.059766
     24 C10         8.5800   -3.1280    1.4080 c3        1 MOL     -0.042629
     25 C11         9.4250   -3.5870    2.5850 c3        1 MOL     -0.130562
     26 C12        10.9380   -3.4450    2.1830 c3        1 MOL      0.010533
     27 N3         11.7890   -3.9160    3.3180 n4        1 MOL     -0.219588
     28 H8          6.1090   -0.8770    0.5780 hn        1 MOL      0.386146
     29 H9          6.5900   -3.7350   -0.2960 h1        1 MOL      0.094174
     30 H10         6.8710   -4.1120    2.1740 hc        1 MOL     -0.014631
     31 H11         6.8840   -2.3470    2.4260 hc        1 MOL     -0.014631
     32 H12         8.6700   -2.0930    1.0530 hc        1 MOL      0.037098
     33 H13         8.8070   -3.7680    0.5570 hc        1 MOL      0.037098
     34 H14         9.1030   -4.5700    2.9210 hc        1 MOL      0.062161
     35 H15         9.1150   -3.0380    3.4670 hc        1 MOL      0.062161
     36 H16        11.1410   -2.3850    2.0670 hx        1 MOL      0.102838
     37 H17        11.2830   -4.0150    1.3210 hx        1 MOL      0.102838
     38 H18        11.4690   -3.5250    4.1970 hn        1 MOL      0.266304
     39 H19        11.6560   -4.9130    3.4050 hn        1 MOL      0.266304
     40 H20        12.7550   -3.6980    3.1320 hn        1 MOL      0.266304
     41 N4          3.6740   -2.7400    0.8670 n         1 MOL     -0.509860
     42 C13         3.6880   -1.3630    1.4290 c3        1 MOL      0.077062
     43 C14         3.7190   -0.2380    0.2780 c         1 MOL     -0.056952
     44 O6          3.5990   -0.6290   -0.9150 o         1 MOL     -0.345795
     45 C15         2.3830   -1.1060    2.2620 c3        1 MOL     -0.122288
     46 C16         1.1850   -1.8490    1.6370 c         1 MOL      0.745438
     47 O7          0.3830   -1.1550    1.0530 o         1 MOL     -0.675553
     48 O8          1.1550   -3.0850    1.6660 o         1 MOL     -0.675553
     49 H21         2.7480   -3.0880    0.6690 hn        1 MOL      0.389666
     50 H22         4.5540   -1.2150    2.0740 h1        1 MOL      0.081364
     51 H23         2.1930   -0.0540    2.5070 hc        1 MOL      0.005441
     52 H24         2.5060   -1.6470    3.1950 hc        1 MOL      0.005441
     53 N5          3.9740    1.0220    0.6730 n         1 MOL     -0.105908
     54 C17         4.0010    2.1090   -0.2830 c3        1 MOL     -0.094433
     55 C18         2.6950    2.3260   -1.0350 c         1 MOL      0.422602
     56 O9          1.5790    1.9860   -0.6040 o         1 MOL     -0.446207
     57 H25         3.8860    1.2160    1.6580 hn        1 MOL      0.267703
     58 H26         4.8780    2.0650   -0.9280 h1        1 MOL      0.078632
     59 H27         4.1090    3.0080    0.3040 h1        1 MOL      0.078632
     60 N6          2.7770    3.0950   -2.1010 n         1 MOL     -0.327204
     61 C19         1.6000    3.9250   -2.6590 c3        1 MOL      0.235607
     62 C20         1.8370    5.4570   -2.8760 c         1 MOL      0.406320
     63 O10         2.9790    5.9280   -2.7590 o         1 MOL     -0.519241
     64 C21         1.2840    3.2360   -3.9540 c3        1 MOL     -0.222280
     65 C22         0.9120    1.8000   -3.7190 c         1 MOL      0.662201
     66 O11        -0.1310    1.5250   -3.0810 o         1 MOL     -0.677562
     67 O12         1.6640    0.8870   -4.1170 o         1 MOL     -0.677562
     68 H28         3.7160    3.4150   -2.2850 hn        1 MOL      0.261125
     69 H29         0.6400    3.8020   -2.1710 h1        1 MOL     -0.018911
     70 H30         2.2020    3.2810   -4.5550 hc        1 MOL      0.058067
     71 H31         0.5150    3.8070   -4.4620 hc        1 MOL      0.058067
     72 N7          0.8340    6.2790   -3.2290 n         1 MOL     -0.408814
     73 C23        -0.5660    6.0560   -3.1410 c3        1 MOL     -0.033796
     74 C24        -0.9700    5.7690   -1.6920 c         1 MOL      0.574886
     75 O13        -0.1530    5.9580   -0.7890 o         1 MOL     -0.494029
     76 H32         1.1400    7.1570   -3.6100 hn        1 MOL      0.315850
     77 H33        -0.8360    5.1860   -3.7410 h1        1 MOL      0.066728
     78 H34        -1.1360    6.9310   -3.4820 h1        1 MOL      0.066728
     79 N8         -2.1980    5.2930   -1.5170 n         1 MOL     -0.582502
     80 C25        -2.6280    4.8750   -0.1350 c3        1 MOL      0.061554
     81 C26        -1.8220    3.6970    0.4260 c         1 MOL      0.879686
     82 O14        -1.3700    2.7960   -0.2570 o         1 MOL     -0.755655
     83 C27        -4.1360    4.6230    0.0700 c3        1 MOL      0.229881
     84 C28        -4.6930    3.3950   -0.5400 c3        1 MOL     -0.045662
     85 O15        -5.0130    5.5920   -0.5290 oh        1 MOL     -0.595475
     86 H35        -2.7480    5.1330   -2.3480 hn        1 MOL      0.328269
     87 H36        -2.5050    5.7740    0.4640 h1        1 MOL      0.042299
     88 H37        -4.3040    4.5530    1.1510 h1        1 MOL     -0.026996
     89 H38        -4.6430    6.4430   -0.2930 ho        1 MOL      0.379009
     90 H39        -4.1650    2.5230   -0.1400 hc        1 MOL      0.026163
     91 H40        -5.7660    3.3350   -0.3940 hc        1 MOL      0.026163
     92 H41        -4.5060    3.3250   -1.6130 hc        1 MOL      0.026163
     93 N9         -1.6380    3.6440    1.7380 n         1 MOL     -0.632990
     94 C29        -1.0410    2.7070    2.6960 c3        1 MOL      0.178537
     95 C30        -1.7530    1.3550    2.6150 c         1 MOL      0.374216
     96 O16        -1.9780    0.7190    1.5700 o         1 MOL     -0.451918
     97 C31         0.5240    2.7120    2.7040 c3        1 MOL      0.408636
     98 C32         1.0750    4.0810    2.2870 c3        1 MOL     -0.310050
     99 C33         0.9950    2.1800    4.0620 c3        1 MOL     -0.837268
    100 C34         0.5900    5.3410    3.0510 c3        1 MOL     -0.237086
    101 H42        -2.0600    4.4530    2.1560 hn        1 MOL      0.252502
    102 H43        -1.2820    3.1300    3.6700 h1        1 MOL      0.000760
    103 H44         0.7780    1.9850    1.9360 hc        1 MOL     -0.144150
    104 H45         0.8630    4.1470    1.2220 hc        1 MOL      0.138964
    105 H46         2.1650    4.0150    2.3770 hc        1 MOL      0.138964
    106 H47         0.6910    1.1430    4.1490 hc        1 MOL      0.217762
    107 H48         2.0850    2.2440    3.9790 hc        1 MOL      0.217762
    108 H49         0.6230    2.7790    4.8930 hc        1 MOL      0.217762
    109 H50         1.1850    6.2190    2.7980 hc        1 MOL      0.076041
    110 H51        -0.4330    5.5970    2.7450 hc        1 MOL      0.076041
    111 H52         0.7250    5.1180    4.1030 hc        1 MOL      0.076041
    112 N10        -2.0380    0.8060    3.7930 n         1 MOL     -0.331288
    113 C35        -2.6580   -0.5620    3.9790 c3        1 MOL     -0.219640
    114 C36        -3.9160   -0.8040    3.2130 c         1 MOL      0.502839
    115 O17        -4.2440   -1.9740    3.0400 o         1 MOL     -0.516137
    116 C37        -2.8390   -0.8060    5.4770 c3        1 MOL      0.469849
    117 C38        -3.8910   -0.0510    6.2630 c3        1 MOL     -0.194680
    118 O18        -1.6000   -0.7100    6.2020 oh        1 MOL     -0.628244
    119 H53        -2.0470    1.4900    4.5460 hn        1 MOL      0.271399
    120 H54        -1.9450   -1.2970    3.6190 h1        1 MOL      0.139808
    121 H55        -3.2430   -1.8120    5.5310 h1        1 MOL     -0.023242
    122 H56        -1.0480   -1.4120    5.8430 ho        1 MOL      0.392277
    123 H57        -3.8800    0.9550    5.8640 hc        1 MOL      0.052744
    124 H58        -4.8990   -0.4480    6.0930 hc        1 MOL      0.052744
    125 H59        -3.6860   -0.0920    7.3370 hc        1 MOL      0.052744
    126 N11        -4.7420    0.2060    2.9040 n         1 MOL     -0.239054
    127 C39        -6.0700   -0.0640    2.3220 c3        1 MOL     -0.217954
    128 C40        -6.0140   -0.7700    0.9350 c         1 MOL      0.655151
    129 O19        -5.5800   -0.0870   -0.0390 o         1 MOL     -0.505826
    130 C41        -6.8480    1.2600    2.0310 c3        1 MOL      0.430373
    131 C42        -8.1490    1.0770    1.2210 c3        1 MOL     -0.222044
    132 O20        -7.1520    1.9040    3.2150 oh        1 MOL     -0.657731
    133 H60        -4.5360    1.1670    3.1460 hn        1 MOL      0.196434
    134 H61        -6.5740   -0.6860    3.0500 h1        1 MOL      0.091476
    135 H62        -6.2290    1.9590    1.4680 h1        1 MOL     -0.017111
    136 H63        -6.4330    2.5150    3.3740 ho        1 MOL      0.397489
    137 H64        -8.8000    1.9230    1.4600 hc        1 MOL      0.061568
    138 H65        -8.0260    1.1700    0.1500 hc        1 MOL      0.061568
    139 H66        -8.6290    0.1420    1.5020 hc        1 MOL      0.061568
    140 N12        -6.4480   -2.0510    0.9290 n         1 MOL     -0.411537
    141 C43        -6.6800   -2.8850   -0.2950 c3        1 MOL     -0.027847
    142 C44        -5.4200   -2.8010   -1.1510 c         1 MOL      0.633217
    143 O21        -5.2920   -1.8870   -1.9740 o         1 MOL     -0.529329
    144 C45        -7.9520   -2.3930   -1.0620 c3        1 MOL     -0.430475
    145 C46        -9.2720   -2.4360   -0.2930 c3        1 MOL      0.240617
    146 C47       -10.4430   -2.1050   -1.2180 c3        1 MOL     -0.270453
    147 C48       -10.3690   -0.5850   -1.7410 c3        1 MOL      0.175947
    148 N13       -11.5120   -0.2630   -2.6030 n4        1 MOL     -0.214286
    149 H67        -6.8000   -2.4280    1.8040 hn        1 MOL      0.275052
    150 H68        -6.8760   -3.9000    0.0540 h1        1 MOL      0.102932
    151 H69        -7.8330   -3.1130   -1.8650 hc        1 MOL      0.140423
    152 H70        -7.7680   -1.3940   -1.4780 hc        1 MOL      0.140423
    153 H71        -9.3640   -1.8950    0.6450 hc        1 MOL      0.001665
    154 H72        -9.4410   -3.4480    0.0870 hc        1 MOL      0.001665
    155 H73       -11.3680   -2.3250   -0.6770 hc        1 MOL      0.082308
    156 H74       -10.3650   -2.7350   -2.1020 hc        1 MOL      0.082308
    157 H75        -9.4750   -0.5080   -2.3600 hx        1 MOL      0.033024
    158 H76       -10.3160   -0.0130   -0.8180 hx        1 MOL      0.033024
    159 H77       -11.6600   -1.0300   -3.2380 hn        1 MOL      0.214358
    160 H78       -12.4200   -0.3010   -2.1540 hn        1 MOL      0.214358
    161 H79       -11.2780    0.5630   -3.1430 hn        1 MOL      0.214358
    162 N14        -4.4140   -3.6690   -0.9580 n         1 MOL     -0.638334
    163 C49        -3.2120   -3.7610   -1.7670 c3        1 MOL      0.426263
    164 C50        -2.0240   -3.1640   -0.9560 c         1 MOL      0.449153
    165 O22        -1.3980   -2.1750   -1.3900 o         1 MOL     -0.690584
    166 C51        -2.9100   -5.1730   -2.3760 c3        1 MOL     -0.201799
    167 C52        -3.6280   -5.4330   -3.7120 c3        1 MOL     -0.278239
    168 C53        -3.4250   -6.8360   -4.2520 c         1 MOL      0.708641
    169 O23        -3.7860   -7.8230   -3.5510 o         1 MOL     -0.638934
    170 O24        -2.9290   -6.9630   -5.3790 o         1 MOL     -0.638934
    171 H80        -4.6000   -4.3860   -0.2630 hn        1 MOL      0.297464
    172 H81        -3.3560   -3.1490   -2.6530 h1        1 MOL     -0.001220
    173 H82        -3.1270   -6.0390   -1.7410 hc        1 MOL      0.099780
    174 H83        -1.8310   -5.1540   -2.5130 hc        1 MOL      0.099780
    175 H84        -3.2210   -4.7690   -4.4760 hc        1 MOL      0.075890
    176 H85        -4.6860   -5.1930   -3.6580 hc        1 MOL      0.075890
    177 N15        -1.6510   -3.6570    0.2120 n         1 MOL     -0.328704
    178 C54        -2.0380   -4.9170    0.8300 c3        1 MOL     -0.038951
    179 H86        -2.6660   -4.7180    1.6980 h1        1 MOL      0.040855
    180 H87        -2.5940   -5.5190    0.1110 h1        1 MOL      0.040855
    181 H88        -1.1450   -5.4580    1.1440 h1        1 MOL      0.040855
    182 H89        -0.9060   -3.1530    0.6820 hn        1 MOL      0.313321
    183 Ca1        -0.5650    0.3250   -0.8450 Ca        1 MOL      1.697929
    184 O25        -3.1390    0.1590   -1.3840 oh        1 MOL     -0.784353
    185 H90        -3.9760   -0.2170   -1.1030 ho        1 MOL      0.385308
    186 H91        -3.1960    0.1940   -2.3380 ho        1 MOL      0.385308
    187 O26         1.1710   -1.1340   -2.0890 oh        1 MOL     -0.784353
    188 H92         1.2990   -0.7740   -2.9600 ho        1 MOL      0.385308
    189 H93         2.0270   -1.0490   -1.6720 ho        1 MOL      0.385308
@<TRIPOS>BOND
     1    1    2 1   
     2    1    4 1   
     3    1    5 1   
     4    1    6 1   
     5    2    3 2   
     6    2    7 1   
     7    7    8 1   
     8    7   15 1   
     9    8    9 1   
    10    8   11 1   
    11    8   16 1   
    12    9   10 2   
    13    9   19 1   
    14   11   12 1   
    15   11   17 1   
    16   11   18 1   
    17   12   13 1   
    18   12   14 1   
    19   19   20 1   
    20   19   28 1   
    21   20   21 1   
    22   20   23 1   
    23   20   29 1   
    24   21   22 2   
    25   21   41 1   
    26   23   24 1   
    27   23   30 1   
    28   23   31 1   
    29   24   25 1   
    30   24   32 1   
    31   24   33 1   
    32   25   26 1   
    33   25   34 1   
    34   25   35 1   
    35   26   27 1   
    36   26   36 1   
    37   26   37 1   
    38   27   38 1   
    39   27   39 1   
    40   27   40 1   
    41   41   42 1   
    42   41   49 1   
    43   42   43 1   
    44   42   45 1   
    45   42   50 1   
    46   43   44 2   
    47   43   53 1   
    48   45   46 1   
    49   45   51 1   
    50   45   52 1   
    51   46   47 1   
    52   46   48 1   
    53   53   54 1   
    54   53   57 1   
    55   54   55 1   
    56   54   58 1   
    57   54   59 1   
    58   55   56 2   
    59   55   60 1   
    60   60   61 1   
    61   60   68 1   
    62   61   62 1   
    63   61   64 1   
    64   61   69 1   
    65   62   63 2   
    66   62   72 1   
    67   64   65 1   
    68   64   70 1   
    69   64   71 1   
    70   65   66 1   
    71   65   67 1   
    72   72   73 1   
    73   72   76 1   
    74   73   74 1   
    75   73   77 1   
    76   73   78 1   
    77   74   75 2   
    78   74   79 1   
    79   79   80 1   
    80   79   86 1   
    81   80   81 1   
    82   80   83 1   
    83   80   87 1   
    84   81   82 2   
    85   81   93 1   
    86   83   84 1   
    87   83   85 1   
    88   83   88 1   
    89   84   90 1   
    90   84   91 1   
    91   84   92 1   
    92   85   89 1   
    93   93   94 1   
    94   93  101 1   
    95   94   95 1   
    96   94   97 1   
    97   94  102 1   
    98   95   96 2   
    99   95  112 1   
   100   97   98 1   
   101   97   99 1   
   102   97  103 1   
   103   98  100 1   
   104   98  104 1   
   105   98  105 1   
   106   99  106 1   
   107   99  107 1   
   108   99  108 1   
   109  100  109 1   
   110  100  110 1   
   111  100  111 1   
   112  112  113 1   
   113  112  119 1   
   114  113  114 1   
   115  113  116 1   
   116  113  120 1   
   117  114  115 2   
   118  114  126 1   
   119  116  117 1   
   120  116  118 1   
   121  116  121 1   
   122  117  123 1   
   123  117  124 1   
   124  117  125 1   
   125  118  122 1   
   126  126  127 1   
   127  126  133 1   
   128  127  128 1   
   129  127  130 1   
   130  127  134 1   
   131  128  129 2   
   132  128  140 1   
   133  130  131 1   
   134  130  132 1   
   135  130  135 1   
   136  131  137 1   
   137  131  138 1   
   138  131  139 1   
   139  132  136 1   
   140  140  141 1   
   141  140  149 1   
   142  141  142 1   
   143  141  144 1   
   144  141  150 1   
   145  142  143 2   
   146  142  162 1   
   147  144  145 1   
   148  144  151 1   
   149  144  152 1   
   150  145  146 1   
   151  145  153 1   
   152  145  154 1   
   153  146  147 1   
   154  146  155 1   
   155  146  156 1   
   156  147  148 1   
   157  147  157 1   
   158  147  158 1   
   159  148  159 1   
   160  148  160 1   
   161  148  161 1   
   162  162  163 1   
   163  162  171 1   
   164  163  164 1   
   165  163  166 1   
   166  163  172 1   
   167  164  165 2   
   168  164  177 1   
   169  166  167 1   
   170  166  173 1   
   171  166  174 1   
   172  167  168 1   
   173  167  175 1   
   174  167  176 1   
   175  168  169 1   
   176  168  170 1   
   177  177  178 1   
   178  177  182 1   
   179  178  179 1   
   180  178  180 1   
   181  178  181 1   
   182  184  185 1   
   183  184  186 1   
   184  187  188 1   
   185  187  189 1   
@<TRIPOS>SUBSTRUCTURE
     1 MOL         1 TEMP              0 ****  ****    0 ROOT
