@<TRIPOS>MOLECULE
MOL
  201   193     1     0     0
SMALL
resp


@<TRIPOS>ATOM
      1 C1          3.2220   -4.4630   -1.8860 c3        1 MOL     -0.305699
      2 C2          2.5290   -3.1590   -1.4830 c         1 MOL      0.748879
      3 O1          3.1160   -2.0980   -1.5750 o         1 MOL     -0.661077
      4 H1          4.2220   -4.2430   -2.2570 hc        1 MOL      0.077544
      5 H2          3.2920   -5.1200   -1.0200 hc        1 MOL      0.077544
      6 H3          2.6450   -4.9550   -2.6700 hc        1 MOL      0.077544
      7 N1          1.2750   -3.0450   -1.0010 n         1 MOL     -0.577931
      8 C3          0.3780   -4.0790   -0.4720 c3        1 MOL     -0.146520
      9 C4         -0.7050   -4.5890   -1.3920 c         1 MOL      0.567751
     10 O2         -1.5140   -5.4740   -1.0370 o         1 MOL     -0.539168
     11 C5         -0.3230   -3.7230    0.8830 c3        1 MOL     -0.267644
     12 C6          0.4690   -2.9250    1.7560 c         1 MOL      0.664548
     13 O3          1.4900   -3.5170    2.3140 o         1 MOL     -0.624812
     14 O4          0.0900   -1.7590    2.0630 o         1 MOL     -0.624812
     15 H4          0.9770   -2.0850   -0.9080 hn        1 MOL      0.370004
     16 H5          0.9360   -4.9450   -0.1130 h1        1 MOL      0.099851
     17 H6         -0.6550   -4.6660    1.3030 hc        1 MOL      0.103810
     18 H7         -1.2060   -3.1420    0.6150 hc        1 MOL      0.103810
     19 N2         -0.7660   -4.0910   -2.6570 n         1 MOL     -0.298709
     20 C7         -1.6980   -4.6170   -3.7700 c3        1 MOL     -0.269127
     21 C8         -3.1830   -4.4150   -3.4650 c         1 MOL      0.436939
     22 O5         -4.0150   -5.1930   -3.9440 o         1 MOL     -0.548319
     23 C9         -1.2960   -4.0500   -5.1710 c3        1 MOL      0.246612
     24 C10        -1.1590   -2.4970   -5.2450 c3        1 MOL      0.145091
     25 C11         0.1450   -4.6280   -5.4670 c3        1 MOL     -0.421452
     26 C12        -2.4860   -1.7430   -5.2730 c3        1 MOL     -0.277528
     27 H8         -0.0060   -3.5460   -3.0360 hn        1 MOL      0.260590
     28 H9         -1.5780   -5.7010   -3.8490 h1        1 MOL      0.124575
     29 H10        -2.0130   -4.4180   -5.9070 hc        1 MOL      0.023480
     30 H11        -0.7250   -2.3960   -6.2420 hc        1 MOL     -0.042676
     31 H12        -0.4850   -2.1820   -4.4570 hc        1 MOL     -0.042676
     32 H13         0.9640   -4.0710   -5.0080 hc        1 MOL      0.089980
     33 H14         0.2260   -5.6620   -5.1620 hc        1 MOL      0.089980
     34 H15         0.3680   -4.5760   -6.5400 hc        1 MOL      0.089980
     35 H16        -3.2730   -2.4370   -5.5580 hc        1 MOL      0.058926
     36 H17        -2.7680   -1.4270   -4.2810 hc        1 MOL      0.058926
     37 H18        -2.4370   -0.8970   -5.9610 hc        1 MOL      0.058926
     38 N3         -3.5700   -3.5040   -2.6460 n         1 MOL      0.016092
     39 C13        -4.9410   -3.4360   -2.1030 c3        1 MOL     -0.185706
     40 C14        -5.0190   -3.0780   -0.6650 c         1 MOL      0.456112
     41 O6         -4.2250   -2.3740   -0.1450 o         1 MOL     -0.512382
     42 C15        -5.8360   -2.5930   -3.0570 c3        1 MOL     -0.016184
     43 C16        -7.2440   -3.1360   -3.0920 c         1 MOL      0.665373
     44 O7         -7.9860   -2.9530   -2.0710 o         1 MOL     -0.686168
     45 O8         -7.6040   -3.8120   -4.1160 o         1 MOL     -0.686168
     46 H19        -2.8440   -3.1420   -2.0510 hn        1 MOL      0.177462
     47 H20        -5.3300   -4.4540   -2.2070 h1        1 MOL      0.094196
     48 H21        -5.4780   -2.6950   -4.0810 hc        1 MOL     -0.019396
     49 H22        -5.8460   -1.5450   -2.7660 hc        1 MOL     -0.019396
     50 N4         -5.9640   -3.6980    0.0440 n         1 MOL     -0.338332
     51 C17        -6.4400   -3.2770    1.4300 c3        1 MOL     -0.252777
     52 C18        -6.9610   -1.7710    1.5460 c         1 MOL      0.624151
     53 O9         -6.8980   -1.3170    2.7140 o         1 MOL     -0.560552
     54 H23        -6.4930   -4.3390   -0.5330 hn        1 MOL      0.279607
     55 H24        -5.6130   -3.3950    2.1280 h1        1 MOL      0.134032
     56 H25        -7.1800   -4.0400    1.6780 h1        1 MOL      0.134032
     57 N5         -7.2770   -1.0450    0.4360 n         1 MOL     -0.375134
     58 C19        -7.3780    0.4630    0.2700 c3        1 MOL      0.055581
     59 C20        -6.5970    0.9740   -0.9950 c         1 MOL      0.737665
     60 O10        -7.0880    0.6890   -2.0580 o         1 MOL     -0.550958
     61 C21        -8.8160    0.9310    0.2570 c3        1 MOL     -0.200172
     62 C22        -9.6190    0.4870    1.4280 c         1 MOL      0.696204
     63 O11       -10.3860   -0.5580    1.3480 o         1 MOL     -0.688775
     64 O12        -9.6640    1.3280    2.4170 o         1 MOL     -0.688775
     65 H26        -7.2100   -1.5890   -0.4120 hn        1 MOL      0.268656
     66 H27        -6.9670    0.7810    1.2300 h1        1 MOL      0.034516
     67 H28        -9.2980    0.5550   -0.6520 hc        1 MOL      0.053077
     68 H29        -8.8740    2.0230    0.2260 hc        1 MOL      0.053077
     69 N6         -5.5000    1.7440   -0.9730 n         1 MOL     -0.713829
     70 C23        -4.9880    2.4430    0.3460 c3        1 MOL      0.084632
     71 C24        -5.5960    3.8410    0.7160 c         1 MOL      0.614400
     72 O13        -6.2460    4.4990   -0.1120 o         1 MOL     -0.554328
     73 H30        -4.9070    1.7850   -1.7800 hn        1 MOL      0.350384
     74 H31        -3.9090    2.5290    0.2420 h1        1 MOL      0.064800
     75 H32        -5.3040    1.7880    1.1560 h1        1 MOL      0.064800
     76 N7         -5.3450    4.3570    1.9350 n         1 MOL     -0.693428
     77 C25        -4.7030    3.7440    3.1360 c3        1 MOL      0.198537
     78 C26        -3.2300    3.3060    2.9340 c         1 MOL      0.329630
     79 O14        -2.7810    2.3620    3.5720 o         1 MOL     -0.478572
     80 C27        -5.6010    2.7000    3.8300 c3        1 MOL     -0.047396
     81 C28        -6.9650    3.1660    4.4300 c3        1 MOL     -0.219608
     82 C29        -7.3940    1.9940    5.2950 c         1 MOL      0.652922
     83 N8         -8.1370    1.0920    4.6660 n         1 MOL     -0.782090
     84 O15        -6.9660    1.8030    6.4120 o         1 MOL     -0.616406
     85 H33        -5.9540    5.1300    2.1450 hn        1 MOL      0.346033
     86 H34        -4.6910    4.5520    3.8550 h1        1 MOL      0.039193
     87 H35        -5.0130    2.4250    4.6980 hc        1 MOL      0.071552
     88 H36        -5.6120    1.7590    3.2830 hc        1 MOL      0.071552
     89 H37        -7.7050    3.4790    3.6820 hc        1 MOL      0.047003
     90 H38        -6.9790    3.9990    5.1360 hc        1 MOL      0.047003
     91 H39        -8.4480    1.2970    3.7280 hn        1 MOL      0.366374
     92 H40        -8.3400    0.1940    5.0840 hn        1 MOL      0.366374
     93 N9         -2.4280    3.8570    2.0440 n         1 MOL     -0.191539
     94 C30        -1.1760    3.2380    1.5310 c3        1 MOL     -0.460613
     95 C31        -1.0460    3.2840   -0.0260 c         1 MOL      0.833513
     96 O16        -1.3690    4.3260   -0.5580 o         1 MOL     -0.588080
     97 C32         0.0220    3.9450    2.2960 c3        1 MOL      0.345280
     98 C33        -0.0140    3.7010    3.7750 c3        1 MOL     -0.151189
     99 C34         0.0610    5.4510    2.0770 c3        1 MOL     -0.151189
    100 H41        -2.7500    4.7180    1.6180 hn        1 MOL      0.218068
    101 H42        -1.1430    2.1940    1.8270 h1        1 MOL      0.209498
    102 H43         0.9630    3.4890    2.0050 hc        1 MOL     -0.035968
    103 H44        -0.0260    2.6430    4.0190 hc        1 MOL      0.029269
    104 H45         0.8450    4.2020    4.2150 hc        1 MOL      0.029269
    105 H46        -0.9430    4.0930    4.1960 hc        1 MOL      0.029269
    106 H47         0.8210    5.9350    2.6890 hc        1 MOL      0.029269
    107 H48         0.0960    5.6630    1.0010 hc        1 MOL      0.029269
    108 H49        -0.8340    5.9460    2.4530 hc        1 MOL      0.029269
    109 N10        -0.6490    2.2070   -0.7120 n         1 MOL     -0.604552
    110 C35        -0.6980    2.1480   -2.1930 c3        1 MOL     -0.148076
    111 C36         0.4040    2.9100   -2.9830 c         1 MOL      0.462221
    112 O17         0.4580    2.8730   -4.1950 o         1 MOL     -0.537648
    113 C37        -0.6410    0.6630   -2.6040 c3        1 MOL      0.019072
    114 C38        -1.5130   -0.3010   -1.8740 c         1 MOL      0.473670
    115 N11        -2.7980   -0.1010   -1.8890 n         1 MOL     -0.519512
    116 O18        -0.9360   -1.1660   -1.2070 o         1 MOL     -0.518043
    117 H50        -0.2640    1.4430   -0.1780 hn        1 MOL      0.353981
    118 H51        -1.6450    2.6140   -2.4680 h1        1 MOL      0.141971
    119 H52         0.4020    0.3800   -2.4780 hc        1 MOL      0.031314
    120 H53        -0.7780    0.6060   -3.6860 hc        1 MOL      0.031314
    121 H54        -3.2680    0.6680   -2.3370 hn        1 MOL      0.287481
    122 H55        -3.3090   -0.7600   -1.3140 hn        1 MOL      0.287481
    123 N12         1.4080    3.4090   -2.2890 n         1 MOL     -0.103032
    124 C39         2.8020    3.5410   -2.6520 c3        1 MOL      0.041826
    125 C40         3.7550    3.3170   -1.5050 c         1 MOL      0.394519
    126 O19         3.4830    3.5710   -0.3700 o         1 MOL     -0.415655
    127 C41         3.0130    4.8510   -3.3150 c3        1 MOL     -0.001186
    128 C42         2.7240    6.0240   -2.3450 ca        1 MOL      0.048358
    129 C43         3.7890    6.6680   -1.5560 ca        1 MOL     -0.218182
    130 C44         1.3690    6.4830   -2.1440 ca        1 MOL     -0.218182
    131 C45         3.4530    7.6310   -0.5530 ca        1 MOL     -0.111605
    132 C46         1.0720    7.4330   -1.1440 ca        1 MOL     -0.111605
    133 C47         2.1290    8.0080   -0.4900 ca        1 MOL      0.169015
    134 O20         1.7850    8.9050    0.4840 oh        1 MOL     -0.482999
    135 H56         1.1750    3.5470   -1.3170 hn        1 MOL      0.118787
    136 H57         2.9130    2.7800   -3.4240 h1        1 MOL      0.055376
    137 H58         2.3750    4.8990   -4.1970 hc        1 MOL      0.013607
    138 H59         4.0160    4.9660   -3.7280 hc        1 MOL      0.013607
    139 H60         4.7480    6.1920   -1.7080 ha        1 MOL      0.122999
    140 H61         0.5760    5.9560   -2.6470 ha        1 MOL      0.122999
    141 H62         4.2510    8.0290    0.0500 ha        1 MOL      0.140419
    142 H63         0.0850    7.7560   -0.8560 ha        1 MOL      0.140419
    143 H64         0.8530    9.0730    0.5930 ho        1 MOL      0.336453
    144 N13         4.9930    3.1080   -1.9070 n         1 MOL     -0.422323
    145 C48         6.0690    2.8080   -0.8990 c3        1 MOL     -0.102125
    146 C49         6.9290    1.6430   -1.4190 c         1 MOL      0.811491
    147 O21         7.6070    1.7160   -2.4300 o         1 MOL     -0.578055
    148 C50         6.8850    4.0980   -0.7280 c3        1 MOL      0.109282
    149 C51         7.9270    4.0990    0.3590 c3        1 MOL     -0.210250
    150 C52         8.4760    5.5070    0.6470 c         1 MOL      0.729774
    151 O22         7.6380    6.3590    1.0880 o         1 MOL     -0.713184
    152 O23         9.6290    5.8150    0.4960 o         1 MOL     -0.713184
    153 H65         5.1540    2.9350   -2.8890 hn        1 MOL      0.281706
    154 H66         5.6500    2.4910    0.0660 h1        1 MOL      0.101344
    155 H67         6.1360    4.8850   -0.6150 hc        1 MOL      0.005435
    156 H68         7.4480    4.2530   -1.6500 hc        1 MOL      0.005435
    157 H69         8.6820    3.3810    0.0470 hc        1 MOL      0.007060
    158 H70         7.4900    3.8400    1.3240 hc        1 MOL      0.007060
    159 N14         6.7180    0.4690   -0.8210 n         1 MOL     -0.703620
    160 C53         6.9890   -0.8500   -1.3690 c3        1 MOL      0.177159
    161 C54         6.4200   -1.2050   -2.7230 c         1 MOL      0.232118
    162 O24         6.7630   -2.2830   -3.3340 o         1 MOL     -0.523665
    163 C55         6.6390   -1.9810   -0.3810 c3        1 MOL     -0.219770
    164 C56         7.5850   -1.9630    0.8250 c3        1 MOL      0.115990
    165 C57         7.1010   -2.9380    1.8720 c         1 MOL      0.477872
    166 O25         7.0490   -4.2020    1.7490 o         1 MOL     -0.668269
    167 O26         6.6650   -2.4070    2.9210 o         1 MOL     -0.668269
    168 H71         5.9140    0.4570   -0.2040 hn        1 MOL      0.334760
    169 H72         8.0700   -0.9280   -1.4700 h1        1 MOL      0.098553
    170 H73         6.7560   -3.0000   -0.7590 hc        1 MOL      0.102709
    171 H74         5.6290   -1.8330    0.0170 hc        1 MOL      0.102709
    172 H75         7.7140   -0.9420    1.1800 hc        1 MOL     -0.020627
    173 H76         8.5540   -2.3190    0.4680 hc        1 MOL     -0.020627
    174 N15         5.5160   -0.3640   -3.2630 n         1 MOL      0.060652
    175 C58         4.9120   -0.4690   -4.6040 c3        1 MOL     -0.264680
    176 H77         5.6150   -0.9540   -5.2810 h1        1 MOL      0.101636
    177 H78         3.9980   -1.0590   -4.5470 h1        1 MOL      0.101636
    178 H79         4.6790    0.5290   -4.9770 h1        1 MOL      0.101636
    179 H80         5.3680    0.5420   -2.8390 hn        1 MOL      0.080101
    180 Ca1         5.3170   -4.4820    3.7430 Ca        1 MOL      1.746939
    181 O27         4.5470   -5.8070    5.9480 oh        1 MOL     -0.810690
    182 H81         5.0550   -6.4520    6.4360 ho        1 MOL      0.382485
    183 H82         3.8550   -5.5420    6.5640 ho        1 MOL      0.382485
    184 O28         6.9990   -3.6140    5.9900 oh        1 MOL     -0.810690
    185 H83         6.5320   -3.7200    6.8290 ho        1 MOL      0.382485
    186 H84         7.9000   -3.4240    6.2530 ho        1 MOL      0.382485
    187 O29         5.3750   -6.4650    1.9600 oh        1 MOL     -0.810690
    188 H85         5.5940   -7.3870    2.1280 ho        1 MOL      0.382485
    189 H86         5.9140   -6.2340    1.1990 ho        1 MOL      0.382485
    190 O30         4.0120   -2.8040    1.9600 oh        1 MOL     -0.810690
    191 H87         3.0600   -2.8930    2.0100 ho        1 MOL      0.382485
    192 H88         4.1850   -2.4050    1.1170 ho        1 MOL      0.382485
    193 O31         2.9920   -5.4100    3.1370 oh        1 MOL     -0.810690
    194 H89         2.3410   -5.9720    3.5470 ho        1 MOL      0.382485
    195 H90         2.4850   -4.8260    2.5700 ho        1 MOL      0.382485
    196 O32         4.1670   -2.3700    5.1490 oh        1 MOL     -0.810690
    197 H91         3.4590   -1.7730    4.9150 ho        1 MOL      0.382485
    198 H92         4.8750   -1.7990    5.4700 ho        1 MOL      0.382485
    199 O33         6.9630   -6.4650    4.3730 oh        1 MOL     -0.810690
    200 H93         7.4480   -6.5300    5.1890 ho        1 MOL      0.382485
    201 H94         6.9250   -7.3720    4.0560 ho        1 MOL      0.382485
@<TRIPOS>BOND
     1    1    2 1   
     2    1    4 1   
     3    1    5 1   
     4    1    6 1   
     5    2    3 2   
     6    2    7 1   
     7    7    8 1   
     8    7   15 1   
     9    8    9 1   
    10    8   11 1   
    11    8   16 1   
    12    9   10 2   
    13    9   19 1   
    14   11   12 1   
    15   11   17 1   
    16   11   18 1   
    17   12   13 1   
    18   12   14 1   
    19   19   20 1   
    20   19   27 1   
    21   20   21 1   
    22   20   23 1   
    23   20   28 1   
    24   21   22 2   
    25   21   38 1   
    26   23   24 1   
    27   23   25 1   
    28   23   29 1   
    29   24   26 1   
    30   24   30 1   
    31   24   31 1   
    32   25   32 1   
    33   25   33 1   
    34   25   34 1   
    35   26   35 1   
    36   26   36 1   
    37   26   37 1   
    38   38   39 1   
    39   38   46 1   
    40   39   40 1   
    41   39   42 1   
    42   39   47 1   
    43   40   41 2   
    44   40   50 1   
    45   42   43 1   
    46   42   48 1   
    47   42   49 1   
    48   43   44 1   
    49   43   45 1   
    50   50   51 1   
    51   50   54 1   
    52   51   52 1   
    53   51   55 1   
    54   51   56 1   
    55   52   53 2   
    56   52   57 1   
    57   57   58 1   
    58   57   65 1   
    59   58   59 1   
    60   58   61 1   
    61   58   66 1   
    62   59   60 2   
    63   59   69 1   
    64   61   62 1   
    65   61   67 1   
    66   61   68 1   
    67   62   63 1   
    68   62   64 1   
    69   69   70 1   
    70   69   73 1   
    71   70   71 1   
    72   70   74 1   
    73   70   75 1   
    74   71   72 2   
    75   71   76 1   
    76   76   77 1   
    77   76   85 1   
    78   77   78 1   
    79   77   80 1   
    80   77   86 1   
    81   78   79 2   
    82   78   93 1   
    83   80   81 1   
    84   80   87 1   
    85   80   88 1   
    86   81   82 1   
    87   81   89 1   
    88   81   90 1   
    89   82   83 1   
    90   82   84 2   
    91   83   91 1   
    92   83   92 1   
    93   93   94 1   
    94   93  100 1   
    95   94   95 1   
    96   94   97 1   
    97   94  101 1   
    98   95   96 2   
    99   95  109 1   
   100   97   98 1   
   101   97   99 1   
   102   97  102 1   
   103   98  103 1   
   104   98  104 1   
   105   98  105 1   
   106   99  106 1   
   107   99  107 1   
   108   99  108 1   
   109  109  110 1   
   110  109  117 1   
   111  110  111 1   
   112  110  113 1   
   113  110  118 1   
   114  111  112 2   
   115  111  123 1   
   116  113  114 1   
   117  113  119 1   
   118  113  120 1   
   119  114  115 1   
   120  114  116 2   
   121  115  121 1   
   122  115  122 1   
   123  123  124 1   
   124  123  135 1   
   125  124  125 1   
   126  124  127 1   
   127  124  136 1   
   128  125  126 2   
   129  125  144 1   
   130  127  128 1   
   131  127  137 1   
   132  127  138 1   
   133  128  129 ar  
   134  128  130 ar  
   135  129  131 ar  
   136  129  139 1   
   137  130  132 ar  
   138  130  140 1   
   139  131  133 ar  
   140  131  141 1   
   141  132  133 ar  
   142  132  142 1   
   143  133  134 1   
   144  134  143 1   
   145  144  145 1   
   146  144  153 1   
   147  145  146 1   
   148  145  148 1   
   149  145  154 1   
   150  146  147 2   
   151  146  159 1   
   152  148  149 1   
   153  148  155 1   
   154  148  156 1   
   155  149  150 1   
   156  149  157 1   
   157  149  158 1   
   158  150  151 1   
   159  150  152 1   
   160  159  160 1   
   161  159  168 1   
   162  160  161 1   
   163  160  163 1   
   164  160  169 1   
   165  161  162 2   
   166  161  174 1   
   167  163  164 1   
   168  163  170 1   
   169  163  171 1   
   170  164  165 1   
   171  164  172 1   
   172  164  173 1   
   173  165  166 1   
   174  165  167 1   
   175  174  175 1   
   176  174  179 1   
   177  175  176 1   
   178  175  177 1   
   179  175  178 1   
   180  181  182 1   
   181  181  183 1   
   182  184  185 1   
   183  184  186 1   
   184  187  188 1   
   185  187  189 1   
   186  190  191 1   
   187  190  192 1   
   188  193  194 1   
   189  193  195 1   
   190  196  197 1   
   191  196  198 1   
   192  199  200 1   
   193  199  201 1   
@<TRIPOS>SUBSTRUCTURE
     1 MOL         1 TEMP              0 ****  ****    0 ROOT
