@<TRIPOS>MOLECULE
MOL
  181   177     1     0     0
SMALL
resp


@<TRIPOS>ATOM
      1 C1          9.3220   -7.2130    0.9360 c3        1 MOL     -0.362454
      2 C2          8.6600   -6.2290   -0.1180 c         1 MOL      0.746427
      3 O1          8.7220   -6.4100   -1.2930 o         1 MOL     -0.631554
      4 H1         10.4070   -7.1710    0.8400 hc        1 MOL      0.102026
      5 H2          9.0360   -6.9140    1.9440 hc        1 MOL      0.102026
      6 H3          8.9800   -8.2310    0.7480 hc        1 MOL      0.102026
      7 N1          7.9220   -5.1880    0.3240 n         1 MOL     -0.595614
      8 C3          7.5610   -4.5960    1.6880 c3        1 MOL     -0.300673
      9 C4          7.3080   -3.1080    1.3000 c         1 MOL      0.817790
     10 O2          6.5060   -2.8580    0.4130 o         1 MOL     -0.720475
     11 C5          6.2850   -5.2410    2.2980 c3        1 MOL      0.212999
     12 C6          5.2120   -5.7720    1.3490 c         1 MOL      0.683848
     13 O3          4.4270   -6.5200    1.8870 o         1 MOL     -0.698199
     14 O4          5.0890   -5.3780    0.1810 o         1 MOL     -0.698199
     15 H4          7.5430   -4.6210   -0.4190 hn        1 MOL      0.343205
     16 H5          8.4160   -4.6720    2.3540 h1        1 MOL      0.107441
     17 H6          5.8610   -4.4980    2.9750 hc        1 MOL     -0.034970
     18 H7          6.6000   -6.0410    2.9720 hc        1 MOL     -0.034970
     19 N2          7.8930   -2.1810    2.0760 n         1 MOL     -0.632542
     20 C7          7.5000   -0.7710    1.9840 c3        1 MOL      0.206686
     21 C8          7.7730   -0.0490    0.6660 c         1 MOL      0.672480
     22 O5          8.8400   -0.0950   -0.0020 o         1 MOL     -0.565875
     23 C9          8.1280   -0.0500    3.2070 c3        1 MOL     -0.357932
     24 H8          8.5120   -2.5310    2.7790 hn        1 MOL      0.338562
     25 H9          6.4210   -0.7340    2.1210 h1        1 MOL      0.054771
     26 H10         7.8890   -0.5620    4.1410 hc        1 MOL      0.107299
     27 H11         9.1770   -0.1400    2.9530 hc        1 MOL      0.107299
     28 H12         7.8230    0.9970    3.2700 hc        1 MOL      0.107299
     29 N3          6.7880    0.7440    0.2390 n         1 MOL     -0.687705
     30 C10         6.7740    1.4800   -1.0820 c3        1 MOL      0.364356
     31 C11         6.9540    2.9600   -0.9500 c         1 MOL      0.461545
     32 O6          6.7830    3.5210    0.1300 o         1 MOL     -0.508134
     33 C12         5.5390    1.1830   -1.8540 c3        1 MOL     -0.133152
     34 C13         5.1700   -0.3470   -1.8420 c         1 MOL      0.585210
     35 O7          4.0050   -0.7580   -1.4920 o         1 MOL     -0.668871
     36 O8          6.1000   -1.1390   -2.1140 o         1 MOL     -0.668871
     37 H13         5.9750    0.8570    0.8180 hn        1 MOL      0.298368
     38 H14         7.6270    1.1410   -1.6530 h1        1 MOL     -0.013476
     39 H15         5.5990    1.4550   -2.9110 hc        1 MOL      0.020495
     40 H16         4.7660    1.8030   -1.4130 hc        1 MOL      0.020495
     41 N4          7.3740    3.6120   -1.9620 n         1 MOL     -0.342591
     42 C14         7.8310    4.9940   -1.8070 c3        1 MOL     -0.243465
     43 C15         6.7160    5.9300   -1.5530 c         1 MOL      0.510765
     44 O9          7.0990    7.0610   -1.1230 o         1 MOL     -0.575078
     45 H17         7.4690    3.1860   -2.8710 hn        1 MOL      0.266859
     46 H18         8.3730    5.3840   -2.6710 h1        1 MOL      0.146337
     47 H19         8.4420    5.0060   -0.9060 h1        1 MOL      0.146337
     48 N5          5.4480    5.5610   -1.6050 n         1 MOL     -0.168811
     49 C16         4.2800    6.3950   -1.3650 c3        1 MOL     -0.073917
     50 C17         3.1500    5.6130   -0.5860 c         1 MOL      0.606234
     51 O10         2.0080    6.0680   -0.6020 o         1 MOL     -0.532389
     52 C18         3.7960    7.0300   -2.6890 c3        1 MOL     -0.176146
     53 C19         3.3600    5.9760   -3.6920 c         1 MOL      0.661863
     54 N6          2.9470    6.3430   -4.8780 n         1 MOL     -0.797789
     55 O11         3.3390    4.7810   -3.3590 o         1 MOL     -0.545594
     56 H20         5.2150    4.7140   -2.0970 hn        1 MOL      0.142794
     57 H21         4.4840    7.1520   -0.6000 h1        1 MOL      0.126567
     58 H22         4.5770    7.6540   -3.1290 hc        1 MOL      0.064565
     59 H23         2.9900    7.7200   -2.4590 hc        1 MOL      0.064565
     60 H24         2.6020    7.2780   -4.9920 hn        1 MOL      0.371449
     61 H25         2.6290    5.5640   -5.4450 hn        1 MOL      0.371449
     62 N7          3.5070    4.5160    0.0750 n         1 MOL     -0.519383
     63 C20         2.6550    3.6850    0.9370 c3        1 MOL      0.246112
     64 C21         2.5800    4.2610    2.3740 c         1 MOL      0.631067
     65 O12         2.9350    5.3930    2.6200 o         1 MOL     -0.555679
     66 H26         4.4730    4.2110    0.0420 hn        1 MOL      0.237370
     67 H27         2.9190    2.6240    1.0170 h1        1 MOL     -0.010817
     68 H28         1.6470    3.7240    0.5270 h1        1 MOL     -0.010817
     69 N8          2.0810    3.5710    3.3960 n         1 MOL     -0.696341
     70 C22         1.4130    2.2290    3.3930 c3        1 MOL      0.129850
     71 C23         0.0370    2.2640    2.7520 c         1 MOL      0.437193
     72 O13        -0.6850    3.2490    2.9180 o         1 MOL     -0.501186
     73 C24         1.3000    1.6150    4.8180 c3        1 MOL      0.361713
     74 C25         0.4670    0.3580    4.8680 c3        1 MOL     -0.157340
     75 O14         2.5680    1.5150    5.4190 oh        1 MOL     -0.648115
     76 H29         1.9320    4.1240    4.2230 hn        1 MOL      0.364230
     77 H30         1.9470    1.4780    2.8060 h1        1 MOL      0.035536
     78 H31         0.7650    2.3660    5.4050 h1        1 MOL     -0.023713
     79 H32         2.4360    1.9440    6.2640 ho        1 MOL      0.391166
     80 H33         0.4450    0.0510    5.9080 hc        1 MOL      0.045430
     81 H34        -0.5470    0.5720    4.5390 hc        1 MOL      0.045430
     82 H35         0.9000   -0.4530    4.2640 hc        1 MOL      0.045430
     83 N9         -0.1630    1.2460    1.8910 n         1 MOL     -0.285717
     84 C26        -1.3580    0.9130    1.1190 c3        1 MOL     -0.023750
     85 C27        -2.1290   -0.1800    1.8870 c         1 MOL      0.458337
     86 O15        -1.5150   -1.1640    2.4050 o         1 MOL     -0.574864
     87 C28        -0.9750    0.6270   -0.3670 c3        1 MOL      0.008078
     88 C29        -0.0600    1.7110   -0.9990 c3        1 MOL      0.005286
     89 C30        -2.3100    0.6300   -1.1800 c3        1 MOL     -0.141475
     90 C31         0.3370    1.4370   -2.4090 c3        1 MOL     -0.435857
     91 H36         0.5770    0.5750    1.7470 hn        1 MOL      0.188010
     92 H37        -1.9780    1.8120    1.1540 h1        1 MOL      0.049059
     93 H38        -0.5370   -0.3710   -0.3550 hc        1 MOL      0.046186
     94 H39         0.8780    1.6890   -0.4490 hc        1 MOL      0.084869
     95 H40        -0.4500    2.7200   -0.8890 hc        1 MOL      0.084869
     96 H41        -2.0890    0.1230   -2.1220 hc        1 MOL      0.046475
     97 H42        -3.0350   -0.0800   -0.7730 hc        1 MOL      0.046475
     98 H43        -2.6700    1.6430   -1.3420 hc        1 MOL      0.046475
     99 H44         1.1250    2.1290   -2.7180 hc        1 MOL      0.098764
    100 H45         0.7680    0.4500   -2.5720 hc        1 MOL      0.098764
    101 H46        -0.5060    1.6160   -3.0720 hc        1 MOL      0.098764
    102 N10        -3.4280   -0.0790    2.1030 n         1 MOL     -0.403521
    103 C32        -4.3120    1.0660    1.7320 c3        1 MOL      0.212877
    104 C33        -5.7680    0.5690    1.5830 c         1 MOL      0.442555
    105 O16        -6.1420   -0.4650    2.1990 o         1 MOL     -0.463606
    106 C34        -4.2960    2.0590    2.9220 c3        1 MOL     -0.042598
    107 C35        -4.8310    1.5920    4.2560 c         1 MOL      0.739212
    108 O17        -4.3170    0.6100    4.8350 o         1 MOL     -0.728790
    109 O18        -5.7890    2.1800    4.7340 o         1 MOL     -0.728790
    110 H47        -3.7610   -0.7690    2.7560 hn        1 MOL      0.335256
    111 H48        -4.0020    1.5400    0.7980 h1        1 MOL      0.007195
    112 H49        -4.8500    2.9160    2.5490 hc        1 MOL     -0.044861
    113 H50        -3.2940    2.4350    3.1330 hc        1 MOL     -0.044861
    114 N11        -6.6050    1.1900    0.6990 n         1 MOL     -0.588091
    115 C36        -7.9770    0.8210    0.3300 c3        1 MOL      0.517412
    116 C37        -8.2510    1.2290   -1.1090 c         1 MOL      0.184818
    117 O19        -7.6800    2.2440   -1.5090 o         1 MOL     -0.531439
    118 C38        -8.9460    1.3730    1.3750 c3        1 MOL     -0.182105
    119 C39       -10.4630    0.9280    1.2850 ca        1 MOL     -0.004055
    120 C40       -11.2730    1.4910    0.3360 ca        1 MOL     -0.091545
    121 C41       -10.9070   -0.0570    2.1210 ca        1 MOL     -0.091545
    122 C42       -12.5350    0.9570    0.0910 ca        1 MOL     -0.191311
    123 C43       -12.1530   -0.6650    1.8530 ca        1 MOL     -0.191311
    124 C44       -12.9360   -0.2090    0.7790 ca        1 MOL     -0.055024
    125 H51        -6.1430    1.9070    0.1660 hn        1 MOL      0.296092
    126 H52        -7.9210   -0.2570    0.4600 h1        1 MOL     -0.077807
    127 H53        -8.8550    2.4610    1.3060 hc        1 MOL      0.067597
    128 H54        -8.5660    1.1520    2.3760 hc        1 MOL      0.067597
    129 H55       -10.9090    2.3630   -0.1840 ha        1 MOL      0.133742
    130 H56       -10.3070   -0.3940    2.9540 ha        1 MOL      0.133742
    131 H57       -13.2450    1.2880   -0.6500 ha        1 MOL      0.129587
    132 H58       -12.6040   -1.3800    2.5260 ha        1 MOL      0.129587
    133 H59       -13.8960   -0.6060    0.5170 ha        1 MOL      0.083705
    134 N12        -9.0490    0.5330   -1.8870 n         1 MOL      0.145987
    135 C45        -9.6250   -0.7290   -1.5440 c3        1 MOL      0.016568
    136 C46        -8.6620   -1.9240   -1.8460 c         1 MOL      0.471976
    137 O20        -9.0470   -3.0670   -1.5780 o         1 MOL     -0.523872
    138 C47       -10.8260   -0.7760   -2.5300 c3        1 MOL     -0.383534
    139 C48       -11.0260    0.5410   -3.1670 c3        1 MOL      0.167645
    140 C49        -9.5810    1.0760   -3.0880 c3        1 MOL     -0.407637
    141 H60       -10.0350   -0.7600   -0.5330 h1        1 MOL      0.132270
    142 H61       -10.5950   -1.4440   -3.3570 hc        1 MOL      0.119944
    143 H62       -11.7020   -1.0410   -1.9360 hc        1 MOL      0.119944
    144 H63       -11.3510    0.5230   -4.2070 hc        1 MOL     -0.017505
    145 H64       -11.5950    1.2190   -2.5220 hc        1 MOL     -0.017505
    146 H65        -8.9360    0.6320   -3.8390 h1        1 MOL      0.148501
    147 H66        -9.5870    2.1620   -3.2100 h1        1 MOL      0.148501
    148 N13        -7.3660   -1.7210   -2.2500 n         1 MOL     -0.501422
    149 C50        -6.2180   -2.6370   -2.0640 c3        1 MOL      0.089626
    150 C51        -5.0720   -2.3070   -3.1060 c         1 MOL      0.527106
    151 O21        -4.7860   -1.1480   -3.2630 o         1 MOL     -0.607438
    152 C52        -5.6870   -2.4930   -0.6530 c3        1 MOL     -0.051230
    153 C53        -4.7930   -3.5830   -0.1530 c3        1 MOL     -0.017097
    154 C54        -5.4800   -4.8730    0.2440 c         1 MOL      0.697520
    155 O22        -5.4140   -5.1690    1.4160 o         1 MOL     -0.724044
    156 O23        -5.9690   -5.5770   -0.6370 o         1 MOL     -0.724044
    157 H67        -7.1480   -0.8050   -2.6120 hn        1 MOL      0.276323
    158 H68        -6.6110   -3.6120   -2.3380 h1        1 MOL      0.109329
    159 H69        -6.5410   -2.4530    0.0200 hc        1 MOL      0.062875
    160 H70        -5.1950   -1.5340   -0.4880 hc        1 MOL      0.062875
    161 H71        -4.2070   -3.2580    0.7120 hc        1 MOL     -0.030560
    162 H72        -4.0000   -3.7510   -0.8710 hc        1 MOL     -0.030560
    163 N14        -4.4420   -3.2300   -3.7850 n         1 MOL     -0.443089
    164 C55        -4.5700   -4.6580   -3.5770 c3        1 MOL     -0.003184
    165 H73        -4.0240   -4.9440   -2.6770 h1        1 MOL      0.038212
    166 H74        -5.6230   -4.9160   -3.4600 h1        1 MOL      0.038212
    167 H75        -4.1580   -5.1890   -4.4350 h1        1 MOL      0.038212
    168 H76        -3.6320   -2.9500   -4.3240 hn        1 MOL      0.291561
    169 Ca1         4.7230   -3.4250   -1.3970 Ca        1 MOL      1.795592
    170 O24         7.0910   -4.4910   -2.3520 oh        1 MOL     -0.900041
    171 H77         7.4830   -5.3530   -2.4690 ho        1 MOL      0.443190
    172 H78         7.7980   -3.8790   -2.5660 ho        1 MOL      0.443190
    173 O25         4.7250   -2.8700   -4.0970 oh        1 MOL     -0.900041
    174 H79         4.2050   -2.2230   -4.5780 ho        1 MOL      0.443190
    175 H80         5.2380   -3.3150   -4.7630 ho        1 MOL      0.443190
    176 O26         2.2840   -3.3360   -2.6130 oh        1 MOL     -0.900041
    177 H81         1.4530   -3.7840   -2.4810 ho        1 MOL      0.443190
    178 H82         2.0740   -2.5870   -3.1600 ho        1 MOL      0.443190
    179 O27         3.2300   -3.0980    0.7410 oh        1 MOL     -0.900041
    180 H83         2.6180   -2.3870    0.9240 ho        1 MOL      0.443190
    181 H84         3.4400   -3.4730    1.5980 ho        1 MOL      0.443190
@<TRIPOS>BOND
     1    1    2 1   
     2    1    4 1   
     3    1    5 1   
     4    1    6 1   
     5    2    3 2   
     6    2    7 1   
     7    7    8 1   
     8    7   15 1   
     9    8    9 1   
    10    8   11 1   
    11    8   16 1   
    12    9   10 2   
    13    9   19 1   
    14   11   12 1   
    15   11   17 1   
    16   11   18 1   
    17   12   13 1   
    18   12   14 1   
    19   19   20 1   
    20   19   24 1   
    21   20   21 1   
    22   20   23 1   
    23   20   25 1   
    24   21   22 2   
    25   21   29 1   
    26   23   26 1   
    27   23   27 1   
    28   23   28 1   
    29   29   30 1   
    30   29   37 1   
    31   30   31 1   
    32   30   33 1   
    33   30   38 1   
    34   31   32 2   
    35   31   41 1   
    36   33   34 1   
    37   33   39 1   
    38   33   40 1   
    39   34   35 1   
    40   34   36 1   
    41   41   42 1   
    42   41   45 1   
    43   42   43 1   
    44   42   46 1   
    45   42   47 1   
    46   43   44 2   
    47   43   48 1   
    48   48   49 1   
    49   48   56 1   
    50   49   50 1   
    51   49   52 1   
    52   49   57 1   
    53   50   51 2   
    54   50   62 1   
    55   52   53 1   
    56   52   58 1   
    57   52   59 1   
    58   53   54 1   
    59   53   55 2   
    60   54   60 1   
    61   54   61 1   
    62   62   63 1   
    63   62   66 1   
    64   63   64 1   
    65   63   67 1   
    66   63   68 1   
    67   64   65 2   
    68   64   69 1   
    69   69   70 1   
    70   69   76 1   
    71   70   71 1   
    72   70   73 1   
    73   70   77 1   
    74   71   72 2   
    75   71   83 1   
    76   73   74 1   
    77   73   75 1   
    78   73   78 1   
    79   74   80 1   
    80   74   81 1   
    81   74   82 1   
    82   75   79 1   
    83   83   84 1   
    84   83   91 1   
    85   84   85 1   
    86   84   87 1   
    87   84   92 1   
    88   85   86 2   
    89   85  102 1   
    90   87   88 1   
    91   87   89 1   
    92   87   93 1   
    93   88   90 1   
    94   88   94 1   
    95   88   95 1   
    96   89   96 1   
    97   89   97 1   
    98   89   98 1   
    99   90   99 1   
   100   90  100 1   
   101   90  101 1   
   102  102  103 1   
   103  102  110 1   
   104  103  104 1   
   105  103  106 1   
   106  103  111 1   
   107  104  105 2   
   108  104  114 1   
   109  106  107 1   
   110  106  112 1   
   111  106  113 1   
   112  107  108 1   
   113  107  109 1   
   114  114  115 1   
   115  114  125 1   
   116  115  116 1   
   117  115  118 1   
   118  115  126 1   
   119  116  117 2   
   120  116  134 1   
   121  118  119 1   
   122  118  127 1   
   123  118  128 1   
   124  119  120 ar  
   125  119  121 ar  
   126  120  122 ar  
   127  120  129 1   
   128  121  123 ar  
   129  121  130 1   
   130  122  124 ar  
   131  122  131 1   
   132  123  124 ar  
   133  123  132 1   
   134  124  133 1   
   135  134  135 1   
   136  134  140 1   
   137  135  136 1   
   138  135  138 1   
   139  135  141 1   
   140  136  137 2   
   141  136  148 1   
   142  138  139 1   
   143  138  142 1   
   144  138  143 1   
   145  139  140 1   
   146  139  144 1   
   147  139  145 1   
   148  140  146 1   
   149  140  147 1   
   150  148  149 1   
   151  148  157 1   
   152  149  150 1   
   153  149  152 1   
   154  149  158 1   
   155  150  151 2   
   156  150  163 1   
   157  152  153 1   
   158  152  159 1   
   159  152  160 1   
   160  153  154 1   
   161  153  161 1   
   162  153  162 1   
   163  154  155 1   
   164  154  156 1   
   165  163  164 1   
   166  163  168 1   
   167  164  165 1   
   168  164  166 1   
   169  164  167 1   
   170  170  171 1   
   171  170  172 1   
   172  173  174 1   
   173  173  175 1   
   174  176  177 1   
   175  176  178 1   
   176  179  180 1   
   177  179  181 1   
@<TRIPOS>SUBSTRUCTURE
     1 MOL         1 TEMP              0 ****  ****    0 ROOT
