@<TRIPOS>MOLECULE
MOL
  192   187     1     0     0
SMALL
resp


@<TRIPOS>ATOM
      1 C1          4.2420    4.4290   -3.2360 c3        1 MOL     -0.360927
      2 C2          5.0660    3.5850   -2.2050 c         1 MOL      0.780760
      3 O1          4.5380    3.2530   -1.1920 o         1 MOL     -0.658376
      4 H1          3.1840    4.1860   -3.1400 hc        1 MOL      0.084520
      5 H2          4.3900    5.4910   -3.0380 hc        1 MOL      0.084520
      6 H3          4.5770    4.1970   -4.2470 hc        1 MOL      0.084520
      7 N1          6.2940    3.1640   -2.5460 n         1 MOL     -0.636662
      8 C3          7.0050    2.0690   -1.9160 c3        1 MOL      0.191373
      9 C4          6.1150    0.8130   -1.6520 c         1 MOL      0.592032
     10 O2          5.7840    0.4000   -0.5190 o         1 MOL     -0.651307
     11 C5          7.9080    2.5850   -0.7680 c3        1 MOL      0.072354
     12 C6          7.3580    3.4520    0.3810 c         1 MOL      0.590749
     13 O3          6.4650    2.8600    1.0620 o         1 MOL     -0.689527
     14 O4          7.7060    4.6260    0.5650 o         1 MOL     -0.689527
     15 H4          6.6480    3.6230   -3.3780 hn        1 MOL      0.301275
     16 H5          7.7150    1.6370   -2.6300 h1        1 MOL      0.013311
     17 H6          8.7110    3.1680   -1.2080 hc        1 MOL     -0.039381
     18 H7          8.3440    1.6960   -0.3040 hc        1 MOL     -0.039381
     19 N2          5.7120    0.2140   -2.7830 n         1 MOL     -0.597560
     20 C7          4.8900   -1.0490   -2.8190 c3        1 MOL      0.267951
     21 C8          5.5010   -2.3110   -2.3150 c         1 MOL      0.256424
     22 O5          5.4420   -3.3270   -3.0520 o         1 MOL     -0.553094
     23 C9          3.4350   -0.8330   -2.4180 c3        1 MOL      0.123200
     24 C10         2.4810   -2.0170   -2.7150 c3        1 MOL      0.035843
     25 C11         2.9460    0.5030   -2.9950 c3        1 MOL     -0.446952
     26 C12         2.2050   -2.2760   -4.2470 c3        1 MOL     -0.392931
     27 H8          5.8500    0.7610   -3.6170 hn        1 MOL      0.294870
     28 H9          4.8760   -1.2280   -3.8930 h1        1 MOL      0.037568
     29 H10         3.4250   -0.6510   -1.3460 hc        1 MOL     -0.127822
     30 H11         1.5030   -1.7480   -2.3210 hc        1 MOL      0.072640
     31 H12         2.8440   -2.9240   -2.2320 hc        1 MOL      0.072640
     32 H13         3.3050    1.2950   -2.3480 hc        1 MOL      0.106127
     33 H14         3.1800    0.6500   -4.0520 hc        1 MOL      0.106127
     34 H15         1.8610    0.5760   -2.9450 hc        1 MOL      0.106127
     35 H16         1.5480   -1.4630   -4.5730 hc        1 MOL      0.085091
     36 H17         3.1280   -2.3270   -4.8370 hc        1 MOL      0.085091
     37 H18         1.6980   -3.2400   -4.3040 hc        1 MOL      0.085091
     38 N3          5.8780   -2.4230   -1.0170 n         1 MOL      0.035786
     39 C13         6.6840   -3.5160   -0.4830 c3        1 MOL      0.089971
     40 C14         5.9010   -4.8430   -0.2070 c         1 MOL      0.510677
     41 O6          6.5770   -5.8660   -0.3310 o         1 MOL     -0.584343
     42 C15         7.4940   -3.0800    0.7170 c3        1 MOL     -0.237621
     43 C16         8.4620   -1.9210    0.4260 c         1 MOL      0.763593
     44 O7          8.5680   -1.0370    1.3330 o         1 MOL     -0.723427
     45 O8          9.0460   -1.9290   -0.6500 o         1 MOL     -0.723427
     46 H19         5.7620   -1.6050   -0.4360 hn        1 MOL      0.188427
     47 H20         7.3970   -3.6910   -1.2910 h1        1 MOL      0.047322
     48 H21         8.1200   -3.9110    1.0430 hc        1 MOL      0.037115
     49 H22         6.8280   -2.7700    1.5140 hc        1 MOL      0.037115
     50 N4          4.6040   -4.9110    0.1530 n         1 MOL     -0.499502
     51 C17         3.7800   -3.7550    0.7100 c3        1 MOL      0.146927
     52 C18         2.3460   -4.2160    1.0770 c         1 MOL      0.513331
     53 O9          1.9160   -5.2150    0.5250 o         1 MOL     -0.558268
     54 H23         4.1070   -5.7900    0.0940 hn        1 MOL      0.310019
     55 H24         3.6500   -2.9660   -0.0340 h1        1 MOL     -0.023895
     56 H25         4.2210   -3.3730    1.6330 h1        1 MOL     -0.023895
     57 N5          1.5860   -3.6430    2.0650 n         1 MOL     -0.352900
     58 C19         1.9050   -2.3790    2.7650 c3        1 MOL      0.222980
     59 C20         2.0790   -1.2390    1.7310 c         1 MOL      0.569223
     60 O10         3.2140   -0.8690    1.5430 o         1 MOL     -0.615594
     61 C21         3.0110   -2.4950    3.8850 c3        1 MOL     -0.566724
     62 C22         2.5610   -3.4780    5.0410 c         1 MOL      0.760858
     63 O11         1.3560   -3.7510    5.2150 o         1 MOL     -0.715750
     64 O12         3.4530   -4.0180    5.7750 o         1 MOL     -0.715750
     65 H26         0.7420   -4.1080    2.3680 hn        1 MOL      0.258885
     66 H27         1.0080   -2.2690    3.3750 h1        1 MOL     -0.012221
     67 H28         3.1900   -1.5360    4.3710 hc        1 MOL      0.144334
     68 H29         3.9440   -2.8600    3.4510 hc        1 MOL      0.144334
     69 N6          1.1280   -0.8580    0.8420 n         1 MOL     -0.394922
     70 C23        -0.3000   -1.1700    0.9660 c3        1 MOL     -0.046348
     71 C24        -0.6270   -2.5040    0.2520 c         1 MOL      0.563647
     72 O13         0.0430   -2.9870   -0.6650 o         1 MOL     -0.475641
     73 H30         1.4430   -0.1350    0.2020 hn        1 MOL      0.292902
     74 H31        -0.9250   -0.3610    0.6010 h1        1 MOL      0.062049
     75 H32        -0.5340   -1.2940    2.0150 h1        1 MOL      0.062049
     76 N7         -1.8000   -3.1830    0.6380 n         1 MOL     -0.546212
     77 C25        -2.2460   -4.4300    0.0270 c3        1 MOL      0.007763
     78 C26        -3.0840   -4.2180   -1.2810 c         1 MOL      0.408481
     79 O14        -3.4640   -5.1440   -2.0090 o         1 MOL     -0.526490
     80 C27        -3.0320   -5.3270    0.9900 c3        1 MOL     -0.019705
     81 C28        -4.2190   -4.6480    1.7720 c3        1 MOL     -0.249784
     82 C29        -5.4050   -4.1590    0.8950 c         1 MOL      0.480632
     83 N8         -6.2380   -5.1390    0.4900 n         1 MOL     -0.666094
     84 O15        -5.6840   -2.9890    0.6470 o         1 MOL     -0.483867
     85 H33        -2.2430   -2.8560    1.4930 hn        1 MOL      0.306653
     86 H34        -1.4190   -5.0740   -0.2930 h1        1 MOL      0.139856
     87 H35        -2.4200   -5.7830    1.7780 hc        1 MOL      0.048830
     88 H36        -3.3250   -6.2110    0.4100 hc        1 MOL      0.048830
     89 H37        -3.8430   -3.7820    2.3280 hc        1 MOL      0.102510
     90 H38        -4.5120   -5.3920    2.5050 hc        1 MOL      0.102510
     91 H39        -6.0070   -6.0980    0.7180 hn        1 MOL      0.330796
     92 H40        -7.1300   -4.8960    0.0850 hn        1 MOL      0.330796
     93 N9         -3.4000   -2.9520   -1.6270 n         1 MOL     -0.192865
     94 C30        -3.8710   -2.5730   -2.9810 c3        1 MOL     -0.062892
     95 C31        -5.1630   -1.8090   -3.0990 c         1 MOL      0.363816
     96 O16        -5.5210   -1.6160   -4.2680 o         1 MOL     -0.521335
     97 C32        -2.7310   -1.8210   -3.7590 c3        1 MOL      0.162707
     98 C33        -1.5400   -2.8000   -3.9340 c3        1 MOL     -0.191476
     99 C34        -2.1340   -0.4990   -3.2060 c3        1 MOL     -0.191476
    100 H41        -3.1500   -2.1620   -1.0580 hn        1 MOL      0.146492
    101 H42        -4.0470   -3.5160   -3.5110 h1        1 MOL      0.111918
    102 H43        -3.1370   -1.7110   -4.7710 hc        1 MOL     -0.005935
    103 H44        -0.9870   -2.8150   -3.0000 hc        1 MOL      0.052672
    104 H45        -1.7610   -3.8200   -4.2650 hc        1 MOL      0.052672
    105 H46        -0.9500   -2.4490   -4.7780 hc        1 MOL      0.052672
    106 H47        -1.9040   -0.7050   -2.1600 hc        1 MOL      0.052672
    107 H48        -1.2190   -0.1460   -3.6750 hc        1 MOL      0.052672
    108 H49        -2.8850    0.2960   -3.2090 hc        1 MOL      0.052672
    109 N10        -5.9210   -1.5940   -2.0230 n         1 MOL     -0.137749
    110 C35        -7.1710   -0.8600   -2.0120 c3        1 MOL     -0.038697
    111 C36        -7.0650    0.5840   -1.4910 c         1 MOL      0.760930
    112 O17        -7.9920    1.3260   -1.7610 o         1 MOL     -0.587431
    113 C37        -8.3470   -1.4570   -1.2680 c3        1 MOL     -0.172721
    114 C38        -8.6490   -2.9240   -1.5670 c         1 MOL      0.673824
    115 N11        -8.9180   -3.2530   -2.8160 n         1 MOL     -0.817796
    116 O18        -8.7020   -3.7750   -0.7080 o         1 MOL     -0.571454
    117 H50        -5.5730   -1.9950   -1.1590 hn        1 MOL      0.203701
    118 H51        -7.3940   -0.7370   -3.0770 h1        1 MOL      0.027867
    119 H52        -9.2430   -0.8470   -1.3640 hc        1 MOL      0.046526
    120 H53        -8.0680   -1.3350   -0.2220 hc        1 MOL      0.046526
    121 H54        -8.9140   -2.4990   -3.4910 hn        1 MOL      0.385922
    122 H55        -8.9980   -4.2430   -2.9710 hn        1 MOL      0.385922
    123 N12        -5.9490    1.0110   -0.8550 n         1 MOL     -0.758972
    124 C39        -5.9700    2.3110   -0.1220 c3        1 MOL      0.497813
    125 C40        -4.5570    2.8420    0.2010 c         1 MOL      0.274973
    126 O19        -3.5550    2.1980    0.2250 o         1 MOL     -0.374566
    127 C41        -6.8570    2.3320    1.1220 c3        1 MOL     -0.263329
    128 C42        -6.5260    1.1200    2.0000 ca        1 MOL      0.290464
    129 C43        -7.4860    0.1170    2.1910 ca        1 MOL     -0.370363
    130 C44        -5.2920    1.0470    2.6870 ca        1 MOL     -0.370363
    131 C45        -7.1240   -1.0500    2.8910 ca        1 MOL     -0.100086
    132 C46        -5.0400   -0.0220    3.5760 ca        1 MOL     -0.100086
    133 C47        -5.9170   -1.1330    3.5740 ca        1 MOL      0.185336
    134 O20        -5.5880   -2.2590    4.2300 oh        1 MOL     -0.458590
    135 H56        -5.2960    0.3020   -0.5690 hn        1 MOL      0.314247
    136 H57        -6.4440    3.0710   -0.7570 h1        1 MOL     -0.010385
    137 H58        -7.8810    2.2020    0.7700 hc        1 MOL      0.068758
    138 H59        -6.8050    3.2730    1.6560 hc        1 MOL      0.068758
    139 H60        -8.3780    0.0060    1.5970 ha        1 MOL      0.179274
    140 H61        -4.6410    1.9120    2.7020 ha        1 MOL      0.179274
    141 H62        -7.8100   -1.8870    2.8300 ha        1 MOL      0.128702
    142 H63        -4.1190   -0.1100    4.1370 ha        1 MOL      0.128702
    143 H64        -6.3030   -2.8900    4.3170 ho        1 MOL      0.346724
    144 N13        -4.5170    4.1680    0.4320 n         1 MOL     -0.548638
    145 C48        -3.4120    5.0250    0.9510 c3        1 MOL      0.135302
    146 C49        -2.0990    5.1900    0.1610 c         1 MOL      0.445459
    147 O21        -1.2880    6.0980    0.3490 o         1 MOL     -0.485559
    148 C50        -2.9530    4.6280    2.4060 c3        1 MOL     -0.010518
    149 C51        -4.1020    4.7020    3.5190 c3        1 MOL     -0.102210
    150 C52        -4.3350    6.1080    3.8570 c         1 MOL      0.596247
    151 O22        -3.5580    6.6280    4.7150 o         1 MOL     -0.705583
    152 O23        -5.1040    6.8020    3.1540 o         1 MOL     -0.705583
    153 H65        -5.3650    4.7110    0.4000 hn        1 MOL      0.306668
    154 H66        -3.7580    6.0610    0.9430 h1        1 MOL      0.081979
    155 H67        -2.0890    5.1110    2.8530 hc        1 MOL      0.052948
    156 H68        -2.6380    3.5890    2.2920 hc        1 MOL      0.052948
    157 H69        -3.8560    4.1970    4.4520 hc        1 MOL      0.006069
    158 H70        -4.9980    4.2840    3.0510 hc        1 MOL      0.006069
    159 N14        -1.7070    4.1720   -0.7260 n         1 MOL     -0.448590
    160 C53        -0.7000    4.2840   -1.7550 c3        1 MOL     -0.107271
    161 C54        -0.9650    5.0810   -2.9500 c         1 MOL      0.595808
    162 O24        -0.0200    5.4240   -3.6770 o         1 MOL     -0.577648
    163 C55        -0.2070    2.8630   -2.1500 c3        1 MOL     -0.226176
    164 C56         0.1490    2.0680   -0.9030 c3        1 MOL      0.330988
    165 C57         1.3470    2.4580   -0.1230 c         1 MOL      0.628570
    166 O25         1.3910    3.6160    0.3790 o         1 MOL     -0.630601
    167 O26         2.2800    1.6440    0.0690 o         1 MOL     -0.630601
    168 H71        -2.2190    3.3140   -0.5880 hn        1 MOL      0.282200
    169 H72         0.1070    4.8920   -1.3270 h1        1 MOL      0.158878
    170 H73         0.7230    2.8800   -2.7270 hc        1 MOL      0.064344
    171 H74        -0.9170    2.3070   -2.7520 hc        1 MOL      0.064344
    172 H75         0.1930    1.0250   -1.2200 hc        1 MOL     -0.118483
    173 H76        -0.7000    1.9310   -0.2390 hc        1 MOL     -0.118483
    174 N15        -2.1920    5.5270   -2.9950 n         1 MOL     -0.316740
    175 C58        -2.8050    6.5470   -3.8860 c3        1 MOL     -0.209839
    176 H77        -3.8860    6.4050   -3.9100 h1        1 MOL      0.098186
    177 H78        -2.5780    7.5440   -3.5090 h1        1 MOL      0.098186
    178 H79        -2.4030    6.4390   -4.8940 h1        1 MOL      0.098186
    179 H80        -2.7150    5.2670   -2.1680 hn        1 MOL      0.234766
    180 Ca1         4.3580    1.6360    1.5020 Ca        1 MOL      1.817500
    181 O27         6.2540    0.1680    2.7160 oh        1 MOL     -0.894819
    182 H81         6.3300   -0.2680    3.5720 ho        1 MOL      0.426992
    183 H82         6.9770   -0.1820    2.2020 ho        1 MOL      0.426992
    184 O28         4.9020    2.6460    4.1180 oh        1 MOL     -0.894819
    185 H83         4.6200    3.1470    4.8880 ho        1 MOL      0.426992
    186 H84         5.8380    2.8500    4.0320 ho        1 MOL      0.426992
    187 O29         3.8170    4.2410    1.2770 oh        1 MOL     -0.894819
    188 H85         4.3980    4.6230    0.6100 ho        1 MOL      0.426992
    189 H86         2.9680    4.1960    0.8410 ho        1 MOL      0.426992
    190 O30         2.2620    1.5570    3.3710 oh        1 MOL     -0.894819
    191 H87         2.5080    1.4470    4.2880 ho        1 MOL      0.426992
    192 H88         1.4700    2.0900    3.3970 ho        1 MOL      0.426992
@<TRIPOS>BOND
     1    1    2 1   
     2    1    4 1   
     3    1    5 1   
     4    1    6 1   
     5    2    3 2   
     6    2    7 1   
     7    7    8 1   
     8    7   15 1   
     9    8    9 1   
    10    8   11 1   
    11    8   16 1   
    12    9   10 2   
    13    9   19 1   
    14   11   12 1   
    15   11   17 1   
    16   11   18 1   
    17   12   13 1   
    18   12   14 1   
    19   19   20 1   
    20   19   27 1   
    21   20   21 1   
    22   20   23 1   
    23   20   28 1   
    24   21   22 2   
    25   21   38 1   
    26   23   24 1   
    27   23   25 1   
    28   23   29 1   
    29   24   26 1   
    30   24   30 1   
    31   24   31 1   
    32   25   32 1   
    33   25   33 1   
    34   25   34 1   
    35   26   35 1   
    36   26   36 1   
    37   26   37 1   
    38   38   39 1   
    39   38   46 1   
    40   39   40 1   
    41   39   42 1   
    42   39   47 1   
    43   40   41 2   
    44   40   50 1   
    45   42   43 1   
    46   42   48 1   
    47   42   49 1   
    48   43   44 1   
    49   43   45 1   
    50   50   51 1   
    51   50   54 1   
    52   51   52 1   
    53   51   55 1   
    54   51   56 1   
    55   52   53 2   
    56   52   57 1   
    57   57   58 1   
    58   57   65 1   
    59   58   59 1   
    60   58   61 1   
    61   58   66 1   
    62   59   60 2   
    63   59   69 1   
    64   61   62 1   
    65   61   67 1   
    66   61   68 1   
    67   62   63 1   
    68   62   64 1   
    69   69   70 1   
    70   69   73 1   
    71   70   71 1   
    72   70   74 1   
    73   70   75 1   
    74   71   72 2   
    75   71   76 1   
    76   76   77 1   
    77   76   85 1   
    78   77   78 1   
    79   77   80 1   
    80   77   86 1   
    81   78   79 2   
    82   78   93 1   
    83   80   81 1   
    84   80   87 1   
    85   80   88 1   
    86   81   82 1   
    87   81   89 1   
    88   81   90 1   
    89   82   83 1   
    90   82   84 2   
    91   83   91 1   
    92   83   92 1   
    93   93   94 1   
    94   93  100 1   
    95   94   95 1   
    96   94   97 1   
    97   94  101 1   
    98   95   96 2   
    99   95  109 1   
   100   97   98 1   
   101   97   99 1   
   102   97  102 1   
   103   98  103 1   
   104   98  104 1   
   105   98  105 1   
   106   99  106 1   
   107   99  107 1   
   108   99  108 1   
   109  109  110 1   
   110  109  117 1   
   111  110  111 1   
   112  110  113 1   
   113  110  118 1   
   114  111  112 2   
   115  111  123 1   
   116  113  114 1   
   117  113  119 1   
   118  113  120 1   
   119  114  115 1   
   120  114  116 2   
   121  115  121 1   
   122  115  122 1   
   123  123  124 1   
   124  123  135 1   
   125  124  125 1   
   126  124  127 1   
   127  124  136 1   
   128  125  126 2   
   129  125  144 1   
   130  127  128 1   
   131  127  137 1   
   132  127  138 1   
   133  128  129 ar  
   134  128  130 ar  
   135  129  131 ar  
   136  129  139 1   
   137  130  132 ar  
   138  130  140 1   
   139  131  133 ar  
   140  131  141 1   
   141  132  133 ar  
   142  132  142 1   
   143  133  134 1   
   144  134  143 1   
   145  144  145 1   
   146  144  153 1   
   147  145  146 1   
   148  145  148 1   
   149  145  154 1   
   150  146  147 2   
   151  146  159 1   
   152  148  149 1   
   153  148  155 1   
   154  148  156 1   
   155  149  150 1   
   156  149  157 1   
   157  149  158 1   
   158  150  151 1   
   159  150  152 1   
   160  159  160 1   
   161  159  168 1   
   162  160  161 1   
   163  160  163 1   
   164  160  169 1   
   165  161  162 2   
   166  161  174 1   
   167  163  164 1   
   168  163  170 1   
   169  163  171 1   
   170  164  165 1   
   171  164  172 1   
   172  164  173 1   
   173  165  166 1   
   174  165  167 1   
   175  174  175 1   
   176  174  179 1   
   177  175  176 1   
   178  175  177 1   
   179  175  178 1   
   180  181  182 1   
   181  181  183 1   
   182  184  185 1   
   183  184  186 1   
   184  187  188 1   
   185  187  189 1   
   186  190  191 1   
   187  190  192 1   
@<TRIPOS>SUBSTRUCTURE
     1 MOL         1 TEMP              0 ****  ****    0 ROOT
