@<TRIPOS>MOLECULE
MOL
  178   175     1     0     0
SMALL
resp


@<TRIPOS>ATOM
      1 C1          1.2150    6.4440   -2.1170 c3        1 MOL     -0.377186
      2 C2          2.5870    6.2540   -1.6220 c         1 MOL      0.787248
      3 O1          2.8280    6.7600   -0.5920 o         1 MOL     -0.592090
      4 H1          0.5070    6.1670   -1.3360 hc        1 MOL      0.086549
      5 H2          1.0660    7.4900   -2.3870 hc        1 MOL      0.086549
      6 H3          1.0540    5.8160   -2.9930 hc        1 MOL      0.086549
      7 N1          3.4630    5.5230   -2.3550 n         1 MOL     -0.682822
      8 C3          4.6820    4.9740   -1.7670 c3        1 MOL      0.243567
      9 C4          4.5460    4.1400   -0.5270 c         1 MOL      0.724682
     10 O2          3.9440    3.0570   -0.4570 o         1 MOL     -0.666953
     11 C5          5.4270    4.2150   -2.8590 c3        1 MOL     -0.367387
     12 C6          6.7990    3.8150   -2.3720 c         1 MOL      0.749931
     13 O3          7.2350    2.6490   -2.4190 o         1 MOL     -0.740638
     14 O4          7.4760    4.6840   -1.7870 o         1 MOL     -0.740638
     15 H4          3.1490    5.2020   -3.2600 hn        1 MOL      0.329781
     16 H5          5.3500    5.8040   -1.5080 h1        1 MOL      0.011094
     17 H6          5.5130    4.8650   -3.7270 hc        1 MOL      0.055376
     18 H7          4.9710    3.2630   -3.1420 hc        1 MOL      0.055376
     19 N2          5.0040    4.6320    0.6270 n         1 MOL     -0.498735
     20 C7          5.0960    3.9950    1.9120 c3        1 MOL      0.335080
     21 C8          3.6120    3.8420    2.5350 c         1 MOL      0.423821
     22 O5          2.6970    4.6290    2.4670 o         1 MOL     -0.500913
     23 C9          5.8860    4.9050    2.8860 c3        1 MOL     -0.313262
     24 H8          5.1970    5.6200    0.6370 hn        1 MOL      0.266789
     25 H9          5.6230    3.0480    1.8040 h1        1 MOL      0.021468
     26 H10         6.9050    4.9810    2.4900 hc        1 MOL      0.075035
     27 H11         5.4460    5.9020    2.9760 hc        1 MOL      0.075035
     28 H12         5.9030    4.3670    3.8300 hc        1 MOL      0.075035
     29 N3          3.3430    2.7840    3.3290 n         1 MOL     -0.241313
     30 C10         4.2530    1.6950    3.7470 c3        1 MOL     -0.185883
     31 C11         4.4670    0.5060    2.7090 c         1 MOL      0.481988
     32 O6          3.5680    0.0630    2.0190 o         1 MOL     -0.376566
     33 C12         3.6330    1.1520    5.1020 c3        1 MOL     -0.215354
     34 C13         2.3960    0.3010    4.9430 c         1 MOL      0.826825
     35 O7          1.5250    0.4990    4.0240 o         1 MOL     -0.716897
     36 O8          2.2550   -0.6360    5.7090 o         1 MOL     -0.716897
     37 H13         2.4030    2.6160    3.6680 hn        1 MOL      0.205199
     38 H14         5.2330    2.1350    3.9360 h1        1 MOL      0.098239
     39 H15         3.3620    1.9980    5.7350 hc        1 MOL      0.050511
     40 H16         4.3850    0.5730    5.6410 hc        1 MOL      0.050511
     41 N4          5.6390   -0.1220    2.7590 n         1 MOL     -0.511838
     42 C14         6.1410   -1.0240    1.6870 c3        1 MOL     -0.016087
     43 C15         6.4620   -0.3030    0.3550 c         1 MOL      0.347072
     44 O9          6.4830    0.9800    0.2950 o         1 MOL     -0.373596
     45 H17         6.4030    0.2520    3.2900 hn        1 MOL      0.311728
     46 H18         5.3340   -1.7460    1.5440 h1        1 MOL      0.096427
     47 H19         6.9700   -1.6430    2.0380 h1        1 MOL      0.096427
     48 N5          6.8020   -1.0730   -0.6850 n         1 MOL     -0.347739
     49 C16         6.9270   -2.5140   -0.8360 c3        1 MOL      0.032744
     50 C17         5.7020   -3.1740   -1.6090 c         1 MOL      0.424056
     51 O10         5.5480   -4.4000   -1.6860 o         1 MOL     -0.483616
     52 C18         8.2700   -2.7200   -1.5630 c3        1 MOL     -0.209549
     53 C19         8.5000   -4.1700   -1.9320 c         1 MOL      0.622214
     54 N6          8.4820   -4.4490   -3.2020 n         1 MOL     -0.759216
     55 O11         8.5870   -5.0610   -1.1160 o         1 MOL     -0.558571
     56 H20         7.1010   -0.5740   -1.5050 hn        1 MOL      0.272457
     57 H21         6.8500   -2.9030    0.1830 h1        1 MOL      0.080228
     58 H22         9.1680   -2.4300   -1.0260 hc        1 MOL      0.091780
     59 H23         8.3260   -2.2300   -2.5330 hc        1 MOL      0.091780
     60 H24         8.4140   -3.7880   -3.9630 hn        1 MOL      0.357064
     61 H25         8.5070   -5.4360   -3.3970 hn        1 MOL      0.357064
     62 N7          4.8710   -2.4320   -2.2630 n         1 MOL     -0.265374
     63 C20         3.8590   -2.9960   -3.1120 c3        1 MOL     -0.245464
     64 C21         2.5820   -3.3450   -2.4300 c         1 MOL      0.563967
     65 O12         1.5830   -2.7090   -2.8130 o         1 MOL     -0.569126
     66 H26         4.9670   -1.4270   -2.1860 hn        1 MOL      0.262504
     67 H27         4.1800   -3.9450   -3.5470 h1        1 MOL      0.133007
     68 H28         3.7130   -2.2570   -3.8940 h1        1 MOL      0.133007
     69 N8          2.6160   -4.2050   -1.4140 n         1 MOL     -0.424715
     70 C22         1.4390   -4.7620   -0.6860 c3        1 MOL      0.217277
     71 C23         0.3830   -3.7720   -0.2390 c         1 MOL      0.352955
     72 O13         0.6330   -2.7950    0.4770 o         1 MOL     -0.487368
     73 C24         1.8940   -5.8060    0.3270 c3        1 MOL      0.287289
     74 C25         0.7870   -6.7810    0.6900 c3        1 MOL     -0.278400
     75 O14         3.0160   -6.5470   -0.1290 oh        1 MOL     -0.641756
     76 H29         3.5680   -4.5000   -1.2370 hn        1 MOL      0.268534
     77 H30         0.8350   -5.3140   -1.4200 h1        1 MOL      0.010830
     78 H31         2.2110   -5.2830    1.2280 h1        1 MOL     -0.000112
     79 H32         3.3760   -7.1030    0.5730 ho        1 MOL      0.412323
     80 H33         1.0650   -7.4410    1.5180 hc        1 MOL      0.070465
     81 H34        -0.1290   -6.2890    1.0130 hc        1 MOL      0.070465
     82 H35         0.4990   -7.4490   -0.1310 hc        1 MOL      0.070465
     83 N9         -0.8730   -4.0710   -0.6350 n         1 MOL     -0.143831
     84 C26        -2.0330   -3.1580   -0.6640 c3        1 MOL     -0.219281
     85 C27        -2.9970   -3.3990    0.4880 c         1 MOL      0.502528
     86 O15        -3.3590   -4.5420    0.7000 o         1 MOL     -0.590074
     87 C28        -2.7160   -3.2860   -2.0550 c3        1 MOL      0.187016
     88 C29        -4.1190   -2.5520   -2.0580 c3        1 MOL      0.107437
     89 C30        -1.7150   -2.8590   -3.1460 c3        1 MOL     -0.342828
     90 C31        -4.8890   -2.6590   -3.3650 c3        1 MOL     -0.391666
     91 H36        -0.9600   -5.0260   -0.9620 hn        1 MOL      0.192231
     92 H37        -1.5450   -2.1760   -0.6710 h1        1 MOL      0.175803
     93 H38        -2.8530   -4.3630   -2.1210 hc        1 MOL     -0.028622
     94 H39        -3.8920   -1.5240   -1.7670 hc        1 MOL      0.013159
     95 H40        -4.7400   -2.9980   -1.2930 hc        1 MOL      0.013159
     96 H41        -0.8020   -3.4620   -3.0980 hc        1 MOL      0.086407
     97 H42        -2.1050   -2.9150   -4.1630 hc        1 MOL      0.086407
     98 H43        -1.4040   -1.8480   -2.8820 hc        1 MOL      0.086407
     99 H44        -4.9410   -3.7050   -3.6470 hc        1 MOL      0.081840
    100 H45        -5.8590   -2.1990   -3.2020 hc        1 MOL      0.081840
    101 H46        -4.2780   -2.2710   -4.1810 hc        1 MOL      0.081840
    102 N10        -3.3870   -2.3430    1.2090 n         1 MOL     -0.083640
    103 C32        -4.1510   -2.4600    2.4560 c3        1 MOL     -0.117505
    104 C33        -5.3860   -1.5960    2.3590 c         1 MOL      0.525615
    105 O16        -6.1750   -1.5680    3.2660 o         1 MOL     -0.555595
    106 C34        -3.2060   -2.1670    3.6340 c3        1 MOL      0.163325
    107 C35        -2.3580   -0.8740    3.4740 c         1 MOL      0.629495
    108 O17        -1.2990   -0.9100    2.7980 o         1 MOL     -0.693203
    109 O18        -2.7520    0.1190    4.1400 o         1 MOL     -0.693203
    110 H47        -3.0150   -1.4690    0.8820 hn        1 MOL     -0.054845
    111 H48        -4.5030   -3.4780    2.5950 h1        1 MOL      0.091047
    112 H49        -2.5870   -3.0290    3.8710 hc        1 MOL     -0.042995
    113 H50        -3.8550   -2.0670    4.5050 hc        1 MOL     -0.042995
    114 N11        -5.5260   -0.6980    1.4100 n         1 MOL     -0.532669
    115 C36        -6.7410    0.1300    1.1080 c3        1 MOL      0.330400
    116 C37        -6.3190    1.3710    0.2870 c         1 MOL      0.253050
    117 O19        -6.7250    1.5350   -0.8290 o         1 MOL     -0.498047
    118 C38        -7.5590   -0.8440    0.2050 c3        1 MOL     -0.396478
    119 C39        -9.1080   -0.6670    0.3950 ca        1 MOL      0.077231
    120 C40        -9.8130   -1.4420    1.3490 ca        1 MOL     -0.103801
    121 C41        -9.8430    0.1970   -0.5400 ca        1 MOL     -0.103801
    122 C42       -11.2220   -1.3730    1.3450 ca        1 MOL     -0.186401
    123 C43       -11.2230    0.3100   -0.3640 ca        1 MOL     -0.186401
    124 C44       -11.8950   -0.4620    0.5620 ca        1 MOL     -0.068556
    125 H51        -4.7250   -0.6230    0.8060 hn        1 MOL      0.278714
    126 H52        -7.2660    0.3790    2.0270 h1        1 MOL      0.052606
    127 H53        -7.4160   -1.8560    0.6100 hc        1 MOL      0.146813
    128 H54        -7.2450   -0.9260   -0.8330 hc        1 MOL      0.146813
    129 H55        -9.2930   -2.1820    1.9390 ha        1 MOL      0.122369
    130 H56        -9.3300    0.8070   -1.2700 ha        1 MOL      0.122369
    131 H57       -11.7510   -1.9320    2.1070 ha        1 MOL      0.108922
    132 H58       -11.8740    1.0450   -0.8220 ha        1 MOL      0.108922
    133 H59       -12.9560   -0.2960    0.6860 ha        1 MOL      0.081799
    134 N12        -5.4350    2.2610    0.7670 n         1 MOL     -0.052700
    135 C45        -5.0700    3.5340    0.1700 c3        1 MOL     -0.014296
    136 C46        -4.7050    3.5100   -1.2860 c         1 MOL      0.254757
    137 O20        -4.7760    4.5400   -1.9540 o         1 MOL     -0.516677
    138 C47        -4.0210    4.0970    1.1710 c3        1 MOL     -0.211985
    139 C48        -4.3230    3.4560    2.4790 c3        1 MOL     -0.196101
    140 C49        -4.8270    2.0950    2.0900 c3        1 MOL      0.079858
    141 H60        -5.8680    4.2740    0.2110 h1        1 MOL      0.080495
    142 H61        -3.0370    3.7960    0.8260 hc        1 MOL      0.120152
    143 H62        -4.0140    5.1820    1.3440 hc        1 MOL      0.120152
    144 H63        -3.4140    3.2840    3.0600 hc        1 MOL      0.082727
    145 H64        -5.0750    4.0200    3.0350 hc        1 MOL      0.082727
    146 H65        -4.0100    1.3800    2.0470 h1        1 MOL      0.070061
    147 H66        -5.6400    1.8830    2.7920 h1        1 MOL      0.070061
    148 N13        -4.3140    2.3920   -1.8940 n         1 MOL      0.031968
    149 C50        -3.7800    2.1870   -3.2080 c3        1 MOL     -0.202258
    150 C51        -4.8320    2.0640   -4.2860 c         1 MOL      0.560530
    151 O21        -4.7040    2.9280   -5.1890 o         1 MOL     -0.562735
    152 C52        -2.8930    0.9750   -3.0710 c3        1 MOL      0.046194
    153 C53        -1.7240    1.1920   -2.1460 c3        1 MOL      0.195562
    154 C54        -1.8910    0.5150   -0.7050 c         1 MOL      0.672222
    155 O22        -0.7980    0.2890   -0.0470 o         1 MOL     -0.680435
    156 O23        -3.0020    0.1770   -0.2300 o         1 MOL     -0.680435
    157 H67        -4.1390    1.6230   -1.2660 hn        1 MOL      0.216337
    158 H68        -3.1620    3.0610   -3.3950 h1        1 MOL      0.094964
    159 H69        -2.5740    0.7650   -4.1000 hc        1 MOL     -0.043730
    160 H70        -3.4660    0.1060   -2.7610 hc        1 MOL     -0.043730
    161 H71        -1.4790    2.2410   -1.9690 hc        1 MOL     -0.076958
    162 H72        -0.8110    0.8170   -2.6010 hc        1 MOL     -0.076958
    163 N14        -5.8370    1.2310   -4.0770 n         1 MOL     -0.294339
    164 C55        -6.9650    1.1120   -4.9600 c3        1 MOL     -0.161032
    165 H73        -7.8390    0.7920   -4.3910 h1        1 MOL      0.078685
    166 H74        -7.1680    2.0770   -5.4240 h1        1 MOL      0.078685
    167 H75        -6.7470    0.3750   -5.7330 h1        1 MOL      0.078685
    168 H76        -5.9010    0.8430   -3.1430 hn        1 MOL      0.278727
    169 Ca1         1.0100   -0.4130    1.6000 Ca        1 MOL      1.714211
    170 O24         1.6700    1.8610    0.3880 oh        1 MOL     -0.939692
    171 H77         2.5080    2.3130    0.2830 ho        1 MOL      0.439376
    172 H78         1.2300    1.9700   -0.4650 ho        1 MOL      0.439376
    173 O25         2.5140   -0.7730   -0.7190 oh        1 MOL     -0.939692
    174 H79         3.1680   -0.1280   -0.9610 ho        1 MOL      0.439376
    175 H80         2.1790   -1.0980   -1.5570 ho        1 MOL      0.439376
    176 O26         1.7380   -2.6220    2.8260 oh        1 MOL     -0.939692
    177 H81         1.3270   -3.4720    2.9410 ho        1 MOL      0.439376
    178 H82         2.5360   -2.6610    3.3470 ho        1 MOL      0.439376
@<TRIPOS>BOND
     1    1    2 1   
     2    1    4 1   
     3    1    5 1   
     4    1    6 1   
     5    2    3 2   
     6    2    7 1   
     7    7    8 1   
     8    7   15 1   
     9    8    9 1   
    10    8   11 1   
    11    8   16 1   
    12    9   10 2   
    13    9   19 1   
    14   11   12 1   
    15   11   17 1   
    16   11   18 1   
    17   12   13 1   
    18   12   14 1   
    19   19   20 1   
    20   19   24 1   
    21   20   21 1   
    22   20   23 1   
    23   20   25 1   
    24   21   22 2   
    25   21   29 1   
    26   23   26 1   
    27   23   27 1   
    28   23   28 1   
    29   29   30 1   
    30   29   37 1   
    31   30   31 1   
    32   30   33 1   
    33   30   38 1   
    34   31   32 2   
    35   31   41 1   
    36   33   34 1   
    37   33   39 1   
    38   33   40 1   
    39   34   35 1   
    40   34   36 1   
    41   41   42 1   
    42   41   45 1   
    43   42   43 1   
    44   42   46 1   
    45   42   47 1   
    46   43   44 2   
    47   43   48 1   
    48   48   49 1   
    49   48   56 1   
    50   49   50 1   
    51   49   52 1   
    52   49   57 1   
    53   50   51 2   
    54   50   62 1   
    55   52   53 1   
    56   52   58 1   
    57   52   59 1   
    58   53   54 1   
    59   53   55 2   
    60   54   60 1   
    61   54   61 1   
    62   62   63 1   
    63   62   66 1   
    64   63   64 1   
    65   63   67 1   
    66   63   68 1   
    67   64   65 2   
    68   64   69 1   
    69   69   70 1   
    70   69   76 1   
    71   70   71 1   
    72   70   73 1   
    73   70   77 1   
    74   71   72 2   
    75   71   83 1   
    76   73   74 1   
    77   73   75 1   
    78   73   78 1   
    79   74   80 1   
    80   74   81 1   
    81   74   82 1   
    82   75   79 1   
    83   83   84 1   
    84   83   91 1   
    85   84   85 1   
    86   84   87 1   
    87   84   92 1   
    88   85   86 2   
    89   85  102 1   
    90   87   88 1   
    91   87   89 1   
    92   87   93 1   
    93   88   90 1   
    94   88   94 1   
    95   88   95 1   
    96   89   96 1   
    97   89   97 1   
    98   89   98 1   
    99   90   99 1   
   100   90  100 1   
   101   90  101 1   
   102  102  103 1   
   103  102  110 1   
   104  103  104 1   
   105  103  106 1   
   106  103  111 1   
   107  104  105 2   
   108  104  114 1   
   109  106  107 1   
   110  106  112 1   
   111  106  113 1   
   112  107  108 1   
   113  107  109 1   
   114  114  115 1   
   115  114  125 1   
   116  115  116 1   
   117  115  118 1   
   118  115  126 1   
   119  116  117 2   
   120  116  134 1   
   121  118  119 1   
   122  118  127 1   
   123  118  128 1   
   124  119  120 ar  
   125  119  121 ar  
   126  120  122 ar  
   127  120  129 1   
   128  121  123 ar  
   129  121  130 1   
   130  122  124 ar  
   131  122  131 1   
   132  123  124 ar  
   133  123  132 1   
   134  124  133 1   
   135  134  135 1   
   136  134  140 1   
   137  135  136 1   
   138  135  138 1   
   139  135  141 1   
   140  136  137 2   
   141  136  148 1   
   142  138  139 1   
   143  138  142 1   
   144  138  143 1   
   145  139  140 1   
   146  139  144 1   
   147  139  145 1   
   148  140  146 1   
   149  140  147 1   
   150  148  149 1   
   151  148  157 1   
   152  149  150 1   
   153  149  152 1   
   154  149  158 1   
   155  150  151 2   
   156  150  163 1   
   157  152  153 1   
   158  152  159 1   
   159  152  160 1   
   160  153  154 1   
   161  153  161 1   
   162  153  162 1   
   163  154  155 1   
   164  154  156 1   
   165  163  164 1   
   166  163  168 1   
   167  164  165 1   
   168  164  166 1   
   169  164  167 1   
   170  170  171 1   
   171  170  172 1   
   172  173  174 1   
   173  173  175 1   
   174  176  177 1   
   175  176  178 1   
@<TRIPOS>SUBSTRUCTURE
     1 MOL         1 TEMP              0 ****  ****    0 ROOT
