@<TRIPOS>MOLECULE
MOL
  192   187     1     0     0
SMALL
resp


@<TRIPOS>ATOM
      1 C1         -6.3620   -3.1750    3.2900 c3        1 MOL      0.216329
      2 C2         -5.2400   -3.2680    2.1490 c         1 MOL      0.463318
      3 O1         -4.7340   -2.2620    1.6770 o         1 MOL     -0.462629
      4 H1         -7.2320   -2.6470    2.9010 hc        1 MOL     -0.075021
      5 H2         -6.6540   -4.1790    3.5950 hc        1 MOL     -0.075021
      6 H3         -5.9630   -2.6350    4.1490 hc        1 MOL     -0.075021
      7 N1         -4.8650   -4.5030    1.7480 n         1 MOL     -0.881616
      8 C3         -3.8070   -4.7730    0.7750 c3        1 MOL      0.135875
      9 C4         -2.3530   -4.4770    1.1960 c         1 MOL      0.719185
     10 O2         -1.4540   -4.4670    0.4120 o         1 MOL     -0.573742
     11 C5         -4.2320   -4.2980   -0.6090 c3        1 MOL     -0.706919
     12 C6         -5.6700   -4.4390   -1.0310 c         1 MOL      1.088860
     13 O3         -6.1340   -5.5630   -1.3450 o         1 MOL     -0.768531
     14 O4         -6.4380   -3.4810   -1.0760 o         1 MOL     -0.768531
     15 H4         -5.4030   -5.2640    2.1330 hn        1 MOL      0.428825
     16 H5         -3.7640   -5.8590    0.7970 h1        1 MOL      0.088030
     17 H6         -3.5600   -4.7990   -1.3130 hc        1 MOL      0.201689
     18 H7         -3.9420   -3.2480   -0.6530 hc        1 MOL      0.201689
     19 N2         -2.0620   -4.2210    2.4930 n         1 MOL     -0.378902
     20 C7         -0.7120   -4.0150    3.1260 c3        1 MOL     -0.337268
     21 C8          0.0650   -5.3740    3.0930 c         1 MOL      0.430287
     22 O5         -0.1800   -6.1830    3.9560 o         1 MOL     -0.559399
     23 C9         -0.8250   -3.4080    4.5390 c3        1 MOL      0.387075
     24 C10        -1.4830   -2.0390    4.6170 c3        1 MOL      0.054924
     25 C11         0.5770   -3.2160    5.1750 c3        1 MOL     -0.264821
     26 C12        -2.2780   -1.7930    5.8470 c3        1 MOL     -0.127156
     27 H8         -2.8330   -4.3090    3.1420 hn        1 MOL      0.288074
     28 H9         -0.1770   -3.2990    2.4950 h1        1 MOL      0.156170
     29 H10        -1.3460   -4.0860    5.2110 hc        1 MOL     -0.054411
     30 H11        -2.1970   -2.0200    3.7940 hc        1 MOL      0.009347
     31 H12        -0.6890   -1.3330    4.3730 hc        1 MOL      0.009347
     32 H13         0.5540   -2.9670    6.2380 hc        1 MOL      0.053111
     33 H14         1.1900   -4.1180    5.1370 hc        1 MOL      0.053111
     34 H15         1.0660   -2.4280    4.5940 hc        1 MOL      0.053111
     35 H16        -2.5140   -0.7200    5.8670 hc        1 MOL      0.021271
     36 H17        -3.1360   -2.4480    5.8690 hc        1 MOL      0.021271
     37 H18        -1.6470   -1.9440    6.7210 hc        1 MOL      0.021271
     38 N3          1.0660   -5.5670    2.2590 n         1 MOL     -0.245369
     39 C13         1.7670   -4.5660    1.3090 c3        1 MOL     -0.043420
     40 C14         2.4390   -5.3960    0.1880 c         1 MOL      0.398268
     41 O6          2.9240   -6.5150    0.3300 o         1 MOL     -0.516817
     42 C15         2.7050   -3.5720    2.1360 c3        1 MOL     -0.126741
     43 C16         3.5820   -2.7000    1.2530 c         1 MOL      0.639203
     44 O7          4.6390   -3.1500    0.7620 o         1 MOL     -0.636219
     45 O8          3.1740   -1.5600    1.0650 o         1 MOL     -0.636219
     46 H19         1.5580   -6.4460    2.2640 hn        1 MOL      0.237817
     47 H20         0.9750   -4.0460    0.7720 h1        1 MOL      0.078917
     48 H21         3.3460   -4.1650    2.7930 hc        1 MOL      0.037044
     49 H22         2.1320   -2.9490    2.8190 hc        1 MOL      0.037044
     50 N4          2.4260   -4.8210   -1.0140 n         1 MOL     -0.219579
     51 C17         2.9060   -5.3540   -2.3110 c3        1 MOL     -0.151499
     52 C18         3.9330   -4.5400   -3.1010 c         1 MOL      0.532219
     53 O9          4.2620   -4.8060   -4.2670 o         1 MOL     -0.613525
     54 H23         1.9840   -3.9180   -1.0910 hn        1 MOL      0.280798
     55 H24         2.0580   -5.5000   -2.9800 h1        1 MOL      0.087105
     56 H25         3.3630   -6.2900   -2.0010 h1        1 MOL      0.087105
     57 N5          4.7040   -3.7150   -2.4660 n         1 MOL     -0.225906
     58 C19         5.8800   -3.1250   -3.1330 c3        1 MOL      0.004175
     59 C20         7.0580   -2.6960   -2.2150 c         1 MOL      0.387353
     60 O10         8.2190   -2.7250   -2.6650 o         1 MOL     -0.586001
     61 C21         5.3510   -1.8000   -3.8000 c3        1 MOL     -0.174724
     62 C22         4.4790   -1.0220   -2.9070 c         1 MOL      0.650980
     63 O11         4.8960   -0.0770   -2.1480 o         1 MOL     -0.639388
     64 O12         3.2680   -1.2700   -2.8780 o         1 MOL     -0.639388
     65 H26         4.5730   -3.7970   -1.4720 hn        1 MOL      0.173428
     66 H27         6.3070   -3.8030   -3.8760 h1        1 MOL      0.100159
     67 H28         4.9310   -2.0400   -4.7790 hc        1 MOL      0.037791
     68 H29         6.2530   -1.2390   -4.0430 hc        1 MOL      0.037791
     69 N6          6.7880   -2.3430   -0.9610 n         1 MOL     -0.130830
     70 C23         7.7720   -1.9240    0.0340 c3        1 MOL     -0.181141
     71 C24         8.1080   -0.4500    0.0690 c         1 MOL      0.586193
     72 O13         9.0480   -0.0880    0.8280 o         1 MOL     -0.633531
     73 H30         5.8300   -2.4150   -0.6450 hn        1 MOL      0.218343
     74 H31         8.6750   -2.5240   -0.0750 h1        1 MOL      0.082842
     75 H32         7.2570   -2.1810    0.9610 h1        1 MOL      0.082842
     76 N7          7.4980    0.3310   -0.7830 n         1 MOL     -0.059630
     77 C25         7.7400    1.7420   -1.0490 c3        1 MOL      0.017241
     78 C26         7.6640    2.6570    0.2360 c         1 MOL      0.374623
     79 O14         8.3440    3.7340    0.2850 o         1 MOL     -0.520856
     80 C27         8.9750    2.0260   -1.9790 c3        1 MOL      0.008238
     81 C28         8.9480    1.1150   -3.1680 c3        1 MOL     -0.049952
     82 C29        10.0100    1.3750   -4.1530 c         1 MOL      0.694336
     83 N8         10.1320    0.5990   -5.2280 n         1 MOL     -0.881546
     84 O15        10.7680    2.3010   -3.9790 o         1 MOL     -0.587548
     85 H33         6.8670   -0.0930   -1.4450 hn        1 MOL      0.045366
     86 H34         6.9280    2.0410   -1.7080 h1        1 MOL      0.067378
     87 H35         9.8130    1.6620   -1.3910 hc        1 MOL      0.019759
     88 H36         9.1350    3.0720   -2.2370 hc        1 MOL      0.019759
     89 H37         7.9630    1.1090   -3.6340 hc        1 MOL      0.021071
     90 H38         9.2260    0.1270   -2.8170 hc        1 MOL      0.021071
     91 H39         9.6850   -0.3030   -5.2000 hn        1 MOL      0.368713
     92 H40        10.6870    0.8620   -6.0370 hn        1 MOL      0.368713
     93 N9          6.8700    2.2890    1.2620 n         1 MOL     -0.220686
     94 C30         6.6520    3.0050    2.5490 c3        1 MOL     -0.233036
     95 C31         5.1430    3.2560    2.7540 c         1 MOL      0.652956
     96 O16         4.7490    4.0450    3.6340 o         1 MOL     -0.608927
     97 C32         7.3300    2.2120    3.7170 c3        1 MOL      0.357535
     98 C33         6.6760    0.7580    3.7790 c3        1 MOL     -0.403325
     99 C34         8.8920    2.2000    3.6100 c3        1 MOL     -0.403325
    100 H41         6.3930    1.4060    1.1140 hn        1 MOL      0.221022
    101 H42         7.1530    3.9750    2.4970 h1        1 MOL      0.126464
    102 H43         7.0270    2.6950    4.6450 hc        1 MOL     -0.049448
    103 H44         7.1960    0.0490    4.4240 hc        1 MOL      0.098770
    104 H45         5.6100    0.8680    3.9970 hc        1 MOL      0.098770
    105 H46         6.6850    0.3270    2.7820 hc        1 MOL      0.098770
    106 H47         9.3500    2.1060    4.6010 hc        1 MOL      0.098770
    107 H48         9.3240    1.3280    3.1170 hc        1 MOL      0.098770
    108 H49         9.2100    3.0850    3.0630 hc        1 MOL      0.098770
    109 N10         4.2170    2.7420    1.9540 n         1 MOL     -0.463247
    110 C35         2.8030    2.7080    2.2610 c3        1 MOL      0.122616
    111 C36         2.0330    2.7910    0.8960 c         1 MOL      0.543735
    112 O17         2.4530    2.3100   -0.1540 o         1 MOL     -0.466821
    113 C37         2.5090    1.4020    2.9660 c3        1 MOL      0.021610
    114 C38         1.0170    0.9540    2.8730 c         1 MOL      0.294974
    115 N11         0.6870    0.0490    1.9730 n         1 MOL     -0.391427
    116 O18         0.1460    1.5100    3.5160 o         1 MOL     -0.532675
    117 H50         4.6170    2.1780    1.2130 hn        1 MOL      0.200470
    118 H51         2.5510    3.4540    3.0110 h1        1 MOL      0.064478
    119 H52         2.9970    1.4350    3.9450 hc        1 MOL      0.031058
    120 H53         3.1400    0.6100    2.5550 hc        1 MOL      0.031058
    121 H54         1.3400   -0.4170    1.3590 hn        1 MOL      0.264184
    122 H55        -0.2930   -0.1910    2.0150 hn        1 MOL      0.264184
    123 N12         0.8290    3.2880    0.9890 n         1 MOL     -0.634562
    124 C39        -0.1400    3.3770   -0.0520 c3        1 MOL      0.182315
    125 C40        -1.4220    4.0940    0.3770 c         1 MOL      0.663213
    126 O19        -2.0140    3.6230    1.3500 o         1 MOL     -0.574184
    127 C41        -0.5840    1.9750   -0.5850 c3        1 MOL     -0.348942
    128 C42        -1.4510    2.0240   -1.8020 ca        1 MOL      0.123605
    129 C43        -1.1640    2.8260   -2.8530 ca        1 MOL     -0.089303
    130 C44        -2.5430    1.1320   -1.8720 ca        1 MOL     -0.089303
    131 C45        -2.0200    2.9430   -3.9770 ca        1 MOL     -0.412667
    132 C46        -3.4400    1.2740   -2.9650 ca        1 MOL     -0.412667
    133 C47        -3.2020    2.1890   -4.0050 ca        1 MOL      0.498715
    134 O20        -4.1020    2.3170   -5.0000 oh        1 MOL     -0.618485
    135 H56         0.4800    3.5690    1.8900 hn        1 MOL      0.331034
    136 H57         0.3450    3.9170   -0.8690 h1        1 MOL      0.055267
    137 H58        -1.0930    1.4130    0.1900 hc        1 MOL      0.148855
    138 H59         0.3220    1.4200   -0.8230 hc        1 MOL      0.148855
    139 H60        -0.3000    3.4670   -2.8290 ha        1 MOL      0.125816
    140 H61        -2.6770    0.4090   -1.0900 ha        1 MOL      0.125816
    141 H62        -1.8310    3.7350   -4.6880 ha        1 MOL      0.188898
    142 H63        -4.3380    0.6700   -3.0000 ha        1 MOL      0.188898
    143 H64        -4.7270    1.5880   -5.0640 ho        1 MOL      0.440887
    144 N13        -1.8030    5.1410   -0.3080 n         1 MOL     -0.645797
    145 C48        -3.1400    5.7210   -0.1990 c3        1 MOL      0.280497
    146 C49        -4.0070    5.3490   -1.4220 c         1 MOL      0.699622
    147 O21        -3.9660    6.0550   -2.4340 o         1 MOL     -0.576698
    148 C50        -2.8740    7.2140    0.0700 c3        1 MOL     -0.338768
    149 C51        -4.1900    8.0090    0.1490 c3        1 MOL     -0.054276
    150 C52        -4.0850    9.5050    0.5160 c         1 MOL      0.703096
    151 O22        -4.1140    9.8170    1.7200 o         1 MOL     -0.692448
    152 O23        -4.1650   10.4010   -0.3660 o         1 MOL     -0.692448
    153 H65        -1.2630    5.4180   -1.1110 hn        1 MOL      0.287421
    154 H66        -3.5920    5.2700    0.6810 h1        1 MOL      0.068790
    155 H67        -2.4810    7.6460   -0.8470 hc        1 MOL      0.106333
    156 H68        -2.4330    7.2910    1.0690 hc        1 MOL      0.106333
    157 H69        -4.8860    7.5050    0.8230 hc        1 MOL     -0.000763
    158 H70        -4.6430    7.9980   -0.8410 hc        1 MOL     -0.000763
    159 N14        -4.9310    4.3940   -1.4380 n         1 MOL     -0.620609
    160 C53        -5.1890    3.4190   -0.3880 c3        1 MOL     -0.254240
    161 C54        -5.6800    3.9680    0.9070 c         1 MOL      0.732260
    162 O24        -6.5660    4.8230    0.8530 o         1 MOL     -0.594696
    163 C55        -6.1430    2.3780   -0.9310 c3        1 MOL      0.561760
    164 C56        -6.3530    1.1500   -0.0430 c3        1 MOL     -0.527115
    165 C57        -7.2270    0.0880   -0.5940 c         1 MOL      0.957222
    166 O25        -7.0500   -0.2310   -1.7740 o         1 MOL     -0.763432
    167 O26        -8.2990   -0.3180   -0.0580 o         1 MOL     -0.763432
    168 H71        -5.2990    4.2060   -2.3640 hn        1 MOL      0.325486
    169 H72        -4.2450    2.9530   -0.1160 h1        1 MOL      0.071249
    170 H73        -5.7340    2.1150   -1.9120 hc        1 MOL     -0.087625
    171 H74        -7.1280    2.8400   -0.9230 hc        1 MOL     -0.087625
    172 H75        -6.8800    1.5500    0.8230 hc        1 MOL      0.040632
    173 H76        -5.3410    0.7640    0.1340 hc        1 MOL      0.040632
    174 N15        -5.1790    3.4770    2.0490 n         1 MOL     -0.292603
    175 C58        -5.4530    4.1310    3.3370 c3        1 MOL     -0.207604
    176 H77        -6.3660    4.7220    3.2580 h1        1 MOL      0.091883
    177 H78        -5.5770    3.3740    4.1110 h1        1 MOL      0.091883
    178 H79        -4.6200    4.7850    3.5980 h1        1 MOL      0.091883
    179 H80        -4.5400    2.6900    2.0170 hn        1 MOL      0.261294
    180 Ca1        -8.8240   -2.6330   -1.2110 Ca        1 MOL      1.587748
    181 O27        -8.1810   -2.9870   -3.7650 oh        1 MOL     -0.872668
    182 O28       -10.2150   -0.6790   -2.6260 oh        1 MOL     -0.872668
    183 H81        -8.7560   -3.1790   -4.5030 ho        1 MOL      0.403806
    184 H82       -10.7860   -1.0980   -3.2760 ho        1 MOL      0.403806
    185 H83        -7.5100   -2.4120   -4.1210 ho        1 MOL      0.403806
    186 H84       -10.5690    0.1960   -2.5200 ho        1 MOL      0.403806
    187 O29       -10.9300   -3.3450   -2.8050 oh        1 MOL     -0.872668
    188 H85       -10.9360   -4.2530   -3.1170 ho        1 MOL      0.403806
    189 H86       -11.8540   -3.1490   -2.6510 ho        1 MOL      0.403806
    190 O30        -8.8500   -5.2730   -1.5270 oh        1 MOL     -0.872668
    191 H87        -7.9140   -5.2480   -1.3300 ho        1 MOL      0.403806
    192 H88        -9.0450   -6.1900   -1.6900 ho        1 MOL      0.403806
@<TRIPOS>BOND
     1    1    2 1   
     2    1    4 1   
     3    1    5 1   
     4    1    6 1   
     5    2    3 2   
     6    2    7 1   
     7    7    8 1   
     8    7   15 1   
     9    8    9 1   
    10    8   11 1   
    11    8   16 1   
    12    9   10 2   
    13    9   19 1   
    14   11   12 1   
    15   11   17 1   
    16   11   18 1   
    17   12   13 1   
    18   12   14 1   
    19   19   20 1   
    20   19   27 1   
    21   20   21 1   
    22   20   23 1   
    23   20   28 1   
    24   21   22 2   
    25   21   38 1   
    26   23   24 1   
    27   23   25 1   
    28   23   29 1   
    29   24   26 1   
    30   24   30 1   
    31   24   31 1   
    32   25   32 1   
    33   25   33 1   
    34   25   34 1   
    35   26   35 1   
    36   26   36 1   
    37   26   37 1   
    38   38   39 1   
    39   38   46 1   
    40   39   40 1   
    41   39   42 1   
    42   39   47 1   
    43   40   41 2   
    44   40   50 1   
    45   42   43 1   
    46   42   48 1   
    47   42   49 1   
    48   43   44 1   
    49   43   45 1   
    50   50   51 1   
    51   50   54 1   
    52   51   52 1   
    53   51   55 1   
    54   51   56 1   
    55   52   53 2   
    56   52   57 1   
    57   57   58 1   
    58   57   65 1   
    59   58   59 1   
    60   58   61 1   
    61   58   66 1   
    62   59   60 2   
    63   59   69 1   
    64   61   62 1   
    65   61   67 1   
    66   61   68 1   
    67   62   63 1   
    68   62   64 1   
    69   69   70 1   
    70   69   73 1   
    71   70   71 1   
    72   70   74 1   
    73   70   75 1   
    74   71   72 2   
    75   71   76 1   
    76   76   77 1   
    77   76   85 1   
    78   77   78 1   
    79   77   80 1   
    80   77   86 1   
    81   78   79 2   
    82   78   93 1   
    83   80   81 1   
    84   80   87 1   
    85   80   88 1   
    86   81   82 1   
    87   81   89 1   
    88   81   90 1   
    89   82   83 1   
    90   82   84 2   
    91   83   91 1   
    92   83   92 1   
    93   93   94 1   
    94   93  100 1   
    95   94   95 1   
    96   94   97 1   
    97   94  101 1   
    98   95   96 2   
    99   95  109 1   
   100   97   98 1   
   101   97   99 1   
   102   97  102 1   
   103   98  103 1   
   104   98  104 1   
   105   98  105 1   
   106   99  106 1   
   107   99  107 1   
   108   99  108 1   
   109  109  110 1   
   110  109  117 1   
   111  110  111 1   
   112  110  113 1   
   113  110  118 1   
   114  111  112 2   
   115  111  123 1   
   116  113  114 1   
   117  113  119 1   
   118  113  120 1   
   119  114  115 1   
   120  114  116 2   
   121  115  121 1   
   122  115  122 1   
   123  123  124 1   
   124  123  135 1   
   125  124  125 1   
   126  124  127 1   
   127  124  136 1   
   128  125  126 2   
   129  125  144 1   
   130  127  128 1   
   131  127  137 1   
   132  127  138 1   
   133  128  129 ar  
   134  128  130 ar  
   135  129  131 ar  
   136  129  139 1   
   137  130  132 ar  
   138  130  140 1   
   139  131  133 ar  
   140  131  141 1   
   141  132  133 ar  
   142  132  142 1   
   143  133  134 1   
   144  134  143 1   
   145  144  145 1   
   146  144  153 1   
   147  145  146 1   
   148  145  148 1   
   149  145  154 1   
   150  146  147 2   
   151  146  159 1   
   152  148  149 1   
   153  148  155 1   
   154  148  156 1   
   155  149  150 1   
   156  149  157 1   
   157  149  158 1   
   158  150  151 1   
   159  150  152 1   
   160  159  160 1   
   161  159  168 1   
   162  160  161 1   
   163  160  163 1   
   164  160  169 1   
   165  161  162 2   
   166  161  174 1   
   167  163  164 1   
   168  163  170 1   
   169  163  171 1   
   170  164  165 1   
   171  164  172 1   
   172  164  173 1   
   173  165  166 1   
   174  165  167 1   
   175  174  175 1   
   176  174  179 1   
   177  175  176 1   
   178  175  177 1   
   179  175  178 1   
   180  181  183 1   
   181  181  185 1   
   182  182  184 1   
   183  182  186 1   
   184  187  188 1   
   185  187  189 1   
   186  190  191 1   
   187  190  192 1   
@<TRIPOS>SUBSTRUCTURE
     1 MOL         1 TEMP              0 ****  ****    0 ROOT
