@<TRIPOS>MOLECULE
MOL
  181   177     1     0     0
SMALL
resp


@<TRIPOS>ATOM
      1 C1         -4.7830    5.8740    4.2390 c3        1 MOL     -0.368522
      2 C2         -4.1490    4.7010    3.4770 c         1 MOL      0.684514
      3 O1         -3.1540    4.0830    3.9210 o         1 MOL     -0.575923
      4 H1         -4.1110    6.1930    5.0370 hc        1 MOL      0.091525
      5 H2         -4.9530    6.7040    3.5550 hc        1 MOL      0.091525
      6 H3         -5.7330    5.5560    4.6700 hc        1 MOL      0.091525
      7 N1         -4.5850    4.3690    2.2620 n         1 MOL     -0.480251
      8 C3         -5.7230    4.9020    1.5380 c3        1 MOL      0.054334
      9 C4         -5.5820    4.6020    0.0010 c         1 MOL      0.453392
     10 O2         -4.5720    4.0780   -0.4310 o         1 MOL     -0.436699
     11 C5         -7.0810    4.2920    1.9870 c3        1 MOL     -0.387595
     12 C6         -7.0260    2.8120    1.8920 c         1 MOL      0.926584
     13 O3         -7.1730    2.1550    0.8500 o         1 MOL     -0.782741
     14 O4         -6.8840    2.0580    2.8700 o         1 MOL     -0.782741
     15 H4         -3.9980    3.6750    1.8130 hn        1 MOL      0.310919
     16 H5         -5.7100    5.9940    1.5490 h1        1 MOL      0.075069
     17 H6         -7.9190    4.7100    1.4230 hc        1 MOL      0.073777
     18 H7         -7.2230    4.4460    3.0570 hc        1 MOL      0.073777
     19 N2         -6.5900    4.8070   -0.7770 n         1 MOL     -0.440219
     20 C7         -6.6400    4.6500   -2.2710 c3        1 MOL      0.140531
     21 C8         -5.9840    3.3520   -2.7750 c         1 MOL      0.497160
     22 O5         -5.5560    3.4000   -3.9250 o         1 MOL     -0.532049
     23 C9         -6.0670    5.9290   -2.8550 c3        1 MOL     -0.263136
     24 H8         -7.3460    5.3080   -0.3400 hn        1 MOL      0.268166
     25 H9         -7.6850    4.6220   -2.5770 h1        1 MOL      0.039256
     26 H10        -6.4700    6.8530   -2.4270 hc        1 MOL      0.082631
     27 H11        -5.0040    6.0190   -2.6440 hc        1 MOL      0.082631
     28 H12        -6.1220    5.9040   -3.9420 hc        1 MOL      0.082631
     29 N3         -6.0820    2.1960   -2.1310 n         1 MOL     -0.344252
     30 C10        -5.7270    0.8750   -2.6840 c3        1 MOL      0.057114
     31 C11        -6.7480   -0.2110   -2.2950 c         1 MOL      0.396922
     32 O6         -7.2590   -0.2290   -1.1810 o         1 MOL     -0.459070
     33 C12        -4.3170    0.5080   -2.2700 c3        1 MOL     -0.124021
     34 C13        -3.8970    0.4840   -0.7910 c         1 MOL      0.900339
     35 O7         -2.6740    0.2350   -0.5680 o         1 MOL     -0.735104
     36 O8         -4.7260    0.5330    0.1460 o         1 MOL     -0.735104
     37 H13        -6.5010    2.2590   -1.2150 hn        1 MOL      0.190529
     38 H14        -5.8490    0.9560   -3.7690 h1        1 MOL      0.025230
     39 H15        -3.6750    1.2570   -2.7360 hc        1 MOL      0.051053
     40 H16        -4.0700   -0.4670   -2.6910 hc        1 MOL      0.051053
     41 N4         -7.0520   -1.1250   -3.2090 n         1 MOL     -0.292663
     42 C14        -7.6670   -2.4130   -2.9730 c3        1 MOL     -0.487215
     43 C15        -6.9320   -3.2950   -1.9770 c         1 MOL      0.649460
     44 O9         -7.5070   -4.2300   -1.5230 o         1 MOL     -0.573711
     45 H17        -6.6080   -0.8890   -4.0880 hn        1 MOL      0.270011
     46 H18        -7.7280   -2.9480   -3.9180 h1        1 MOL      0.206212
     47 H19        -8.6760   -2.1940   -2.6140 h1        1 MOL      0.206212
     48 N5         -5.6540   -3.0630   -1.7930 n         1 MOL     -0.423298
     49 C16        -4.8350   -3.8770   -0.9320 c3        1 MOL      0.063766
     50 C17        -4.2260   -3.1140    0.2830 c         1 MOL      0.371275
     51 O10        -4.8170   -2.1410    0.7440 o         1 MOL     -0.404949
     52 C18        -3.6300   -4.4830   -1.7120 c3        1 MOL     -0.013377
     53 C19        -3.2810   -5.9290   -1.4320 c         1 MOL      0.649994
     54 N6         -3.3380   -6.8450   -2.3880 n         1 MOL     -0.726098
     55 O11        -3.0820   -6.1780   -0.2290 o         1 MOL     -0.584227
     56 H20        -5.2560   -2.1680   -2.0020 hn        1 MOL      0.273491
     57 H21        -5.4480   -4.7260   -0.6350 h1        1 MOL      0.073595
     58 H22        -2.6730   -3.9510   -1.6750 hc        1 MOL     -0.010342
     59 H23        -3.7820   -4.6250   -2.7830 hc        1 MOL     -0.010342
     60 H24        -3.6400   -6.5590   -3.3090 hn        1 MOL      0.351349
     61 H25        -3.5800   -7.7860   -2.1350 hn        1 MOL      0.351349
     62 N7         -3.1780   -3.6160    0.9210 n         1 MOL     -0.412595
     63 C20        -2.4440   -3.0070    2.0840 c3        1 MOL     -0.086387
     64 C21        -1.6150   -1.7140    1.8010 c         1 MOL      0.395522
     65 O12        -1.7240   -0.7520    2.5220 o         1 MOL     -0.468551
     66 H26        -2.8480   -4.5320    0.6480 hn        1 MOL      0.312539
     67 H27        -1.7630   -3.7000    2.5730 h1        1 MOL      0.098536
     68 H28        -3.2480   -2.7760    2.7830 h1        1 MOL      0.098536
     69 N8         -0.6730   -1.7320    0.8750 n         1 MOL     -0.260459
     70 C22        -0.3230   -2.7330   -0.2030 c3        1 MOL      0.015393
     71 C23         0.8630   -3.6460    0.1560 c         1 MOL      0.308068
     72 O13         0.9090   -4.8320   -0.2710 o         1 MOL     -0.490597
     73 C24        -0.1970   -2.0250   -1.5630 c3        1 MOL      0.529038
     74 C25         0.2870   -3.1070   -2.6050 c3        1 MOL     -0.496268
     75 O14        -1.4190   -1.5230   -2.1310 oh        1 MOL     -0.667109
     76 H29        -0.0010   -0.9730    0.9430 hn        1 MOL      0.264482
     77 H30        -1.0730   -3.4940   -0.3790 h1        1 MOL      0.026848
     78 H31         0.5840   -1.2660   -1.5960 h1        1 MOL     -0.038281
     79 H32        -1.8560   -1.0040   -1.4550 ho        1 MOL      0.371374
     80 H33        -0.3570   -3.9660   -2.7180 hc        1 MOL      0.134926
     81 H34         0.3830   -2.5970   -3.5640 hc        1 MOL      0.134926
     82 H35         1.3100   -3.3780   -2.3270 hc        1 MOL      0.134926
     83 N9          1.9030   -3.0750    0.7380 n         1 MOL     -0.163016
     84 C26         3.2150   -3.7160    1.0760 c3        1 MOL      0.000011
     85 C27         3.9700   -4.2560   -0.1630 c         1 MOL      0.553148
     86 O15         4.0530   -5.4650   -0.3740 o         1 MOL     -0.540244
     87 C28         3.0940   -4.7520    2.2620 c3        1 MOL      0.083800
     88 C29         2.4820   -3.9280    3.4670 c3        1 MOL      0.267200
     89 C30         4.4210   -5.2460    2.6690 c3        1 MOL     -0.083004
     90 C31         2.1900   -4.8000    4.6720 c3        1 MOL     -0.389208
     91 H36         1.6620   -2.1940    1.1680 hn        1 MOL      0.160279
     92 H37         3.7930   -2.9060    1.5050 h1        1 MOL      0.052873
     93 H38         2.3800   -5.4930    1.8970 hc        1 MOL      0.024123
     94 H39         1.5460   -3.4820    3.1230 hc        1 MOL     -0.057395
     95 H40         3.1070   -3.0720    3.6850 hc        1 MOL     -0.057395
     96 H41         4.7480   -6.0070    1.9500 hc        1 MOL      0.007096
     97 H42         5.1340   -4.4260    2.6480 hc        1 MOL      0.007096
     98 H43         4.5330   -5.7560    3.6220 hc        1 MOL      0.007096
     99 H44         1.7400   -5.7400    4.3320 hc        1 MOL      0.074969
    100 H45         3.0890   -4.9740    5.2560 hc        1 MOL      0.074969
    101 H46         1.6300   -4.1550    5.3610 hc        1 MOL      0.074969
    102 N10         4.3610   -3.3420   -1.0720 n         1 MOL     -0.552116
    103 C32         4.1810   -1.8840   -1.0880 c3        1 MOL      0.266565
    104 C33         5.2670   -1.1120   -0.2900 c         1 MOL      0.489215
    105 O16         4.8810   -0.3920    0.6210 o         1 MOL     -0.550459
    106 C34         4.1760   -1.2820   -2.5160 c3        1 MOL     -0.076191
    107 C35         5.3910   -1.6160   -3.3890 c         1 MOL      0.623404
    108 O17         5.6040   -0.9000   -4.4090 o         1 MOL     -0.662737
    109 O18         6.2320   -2.4970   -3.1110 o         1 MOL     -0.662737
    110 H47         4.6910   -3.7410   -1.9420 hn        1 MOL      0.285482
    111 H48         3.2260   -1.6610   -0.6260 h1        1 MOL     -0.057977
    112 H49         4.0300   -0.2100   -2.4270 hc        1 MOL      0.014143
    113 H50         3.3390   -1.7720   -3.0010 hc        1 MOL      0.014143
    114 N11         6.5400   -1.2260   -0.6750 n         1 MOL     -0.522506
    115 C36         7.6690   -0.4310   -0.1080 c3        1 MOL      0.239314
    116 C37         8.6140    0.1320   -1.1650 c         1 MOL      0.711067
    117 O19         9.4380   -0.6400   -1.6650 o         1 MOL     -0.553472
    118 C38         8.4230   -1.2090    0.9970 c3        1 MOL     -0.150310
    119 C39         9.5840   -0.3650    1.6600 ca        1 MOL     -0.029086
    120 C40        10.8850   -0.3030    1.1290 ca        1 MOL     -0.120391
    121 C41         9.3470    0.3980    2.8190 ca        1 MOL     -0.120391
    122 C42        11.8950    0.4890    1.6960 ca        1 MOL     -0.087121
    123 C43        10.3790    1.1050    3.4530 ca        1 MOL     -0.087121
    124 C44        11.6600    1.1630    2.8850 ca        1 MOL     -0.165282
    125 H51         6.6340   -1.7900   -1.5050 hn        1 MOL      0.236146
    126 H52         7.1480    0.3910    0.3710 h1        1 MOL     -0.064751
    127 H53         8.7830   -2.2060    0.7590 hc        1 MOL      0.086775
    128 H54         7.7010   -1.4750    1.7720 hc        1 MOL      0.086775
    129 H55        11.1290   -0.8190    0.2120 ha        1 MOL      0.102539
    130 H56         8.3620    0.3620    3.2750 ha        1 MOL      0.102539
    131 H57        12.9090    0.4930    1.3060 ha        1 MOL      0.087536
    132 H58        10.1320    1.5450    4.4010 ha        1 MOL      0.087536
    133 H59        12.4770    1.6850    3.3530 ha        1 MOL      0.101754
    134 N12         8.6860    1.5160   -1.3560 n         1 MOL     -0.415491
    135 C45         7.8650    2.4900   -0.6320 c3        1 MOL      0.419086
    136 C46         6.3000    2.4400   -0.9180 c         1 MOL      0.479235
    137 O20         5.7820    1.7590   -1.8140 o         1 MOL     -0.484728
    138 C47         8.4970    3.8270   -0.8610 c3        1 MOL     -0.247589
    139 C48         9.8930    3.5050   -1.3990 c3        1 MOL      0.167226
    140 C49         9.7350    2.1740   -2.1260 c3        1 MOL      0.006946
    141 H60         7.9140    2.2650    0.4350 h1        1 MOL     -0.047526
    142 H61         7.9270    4.3180   -1.6440 hc        1 MOL      0.048407
    143 H62         8.5590    4.4380    0.0430 hc        1 MOL      0.048407
    144 H63        10.2850    4.2820   -2.0540 hc        1 MOL     -0.040167
    145 H64        10.5100    3.3760   -0.5120 hc        1 MOL     -0.040167
    146 H65         9.4720    2.3240   -3.1760 h1        1 MOL      0.047837
    147 H66        10.6390    1.5720   -2.0520 h1        1 MOL      0.047837
    148 N13         5.5310    3.0370   -0.0010 n         1 MOL     -0.430542
    149 C50         4.0560    2.8680    0.0730 c3        1 MOL      0.203043
    150 C51         3.4390    3.4650    1.3900 c         1 MOL      0.409574
    151 O21         2.2710    4.0570    1.3720 o         1 MOL     -0.495055
    152 C52         3.2560    3.3750   -1.1470 c3        1 MOL     -0.133936
    153 C53         3.4480    4.8520   -1.3590 c3        1 MOL      0.051409
    154 C54         2.6520    5.4580   -2.4780 c         1 MOL      0.628567
    155 O22         1.4050    5.2880   -2.4230 o         1 MOL     -0.675324
    156 O23         3.2380    6.0820   -3.3900 o         1 MOL     -0.675324
    157 H67         5.9620    3.7150    0.6060 hn        1 MOL      0.207590
    158 H68         3.8740    1.7970    0.1630 h1        1 MOL      0.027541
    159 H69         2.1750    3.2880   -1.0700 hc        1 MOL      0.075901
    160 H70         3.5570    2.9060   -2.0930 hc        1 MOL      0.075901
    161 H71         4.4820    4.8960   -1.6910 hc        1 MOL     -0.075490
    162 H72         3.3150    5.3240   -0.3910 hc        1 MOL     -0.075490
    163 N14         3.9510    3.4000    2.6000 n         1 MOL     -0.370219
    164 C55         4.8570    2.2840    3.0690 c3        1 MOL      0.049574
    165 H73         4.6750    2.0900    4.1250 h1        1 MOL      0.020705
    166 H74         4.6510    1.3830    2.4920 h1        1 MOL      0.020705
    167 H75         5.8970    2.5770    2.9280 h1        1 MOL      0.020705
    168 H76         3.5230    3.9320    3.3460 hn        1 MOL      0.263443
    169 Ca1        -6.5740   -0.3070    1.6430 Ca        1 MOL      1.751750
    170 O24        -7.0610   -1.4870    4.0490 oh        1 MOL     -0.831919
    171 H77        -7.9000   -1.5340    4.5100 ho        1 MOL      0.387946
    172 H78        -6.5860   -2.2670    4.3610 ho        1 MOL      0.387946
    173 O25        -7.6050   -2.6700    0.9130 oh        1 MOL     -0.831919
    174 H79        -8.4630   -2.8320    0.5140 ho        1 MOL      0.387946
    175 H80        -7.2700   -3.5430    1.1270 ho        1 MOL      0.387946
    176 O26        -9.1070    0.1750    2.0050 oh        1 MOL     -0.831919
    177 H81        -9.7780   -0.4480    2.3030 ho        1 MOL      0.387946
    178 H82        -9.4710    1.0340    2.2020 ho        1 MOL      0.387946
    179 O27        -4.4220   -0.6200    3.1960 oh        1 MOL     -0.831919
    180 H83        -4.1720   -0.5010    4.1070 ho        1 MOL      0.387946
    181 H84        -3.6000   -0.5550    2.7080 ho        1 MOL      0.387946
@<TRIPOS>BOND
     1    1    2 1   
     2    1    4 1   
     3    1    5 1   
     4    1    6 1   
     5    2    3 2   
     6    2    7 1   
     7    7    8 1   
     8    7   15 1   
     9    8    9 1   
    10    8   11 1   
    11    8   16 1   
    12    9   10 2   
    13    9   19 1   
    14   11   12 1   
    15   11   17 1   
    16   11   18 1   
    17   12   13 1   
    18   12   14 1   
    19   19   20 1   
    20   19   24 1   
    21   20   21 1   
    22   20   23 1   
    23   20   25 1   
    24   21   22 2   
    25   21   29 1   
    26   23   26 1   
    27   23   27 1   
    28   23   28 1   
    29   29   30 1   
    30   29   37 1   
    31   30   31 1   
    32   30   33 1   
    33   30   38 1   
    34   31   32 2   
    35   31   41 1   
    36   33   34 1   
    37   33   39 1   
    38   33   40 1   
    39   34   35 1   
    40   34   36 1   
    41   41   42 1   
    42   41   45 1   
    43   42   43 1   
    44   42   46 1   
    45   42   47 1   
    46   43   44 2   
    47   43   48 1   
    48   48   49 1   
    49   48   56 1   
    50   49   50 1   
    51   49   52 1   
    52   49   57 1   
    53   50   51 2   
    54   50   62 1   
    55   52   53 1   
    56   52   58 1   
    57   52   59 1   
    58   53   54 1   
    59   53   55 2   
    60   54   60 1   
    61   54   61 1   
    62   62   63 1   
    63   62   66 1   
    64   63   64 1   
    65   63   67 1   
    66   63   68 1   
    67   64   65 2   
    68   64   69 1   
    69   69   70 1   
    70   69   76 1   
    71   70   71 1   
    72   70   73 1   
    73   70   77 1   
    74   71   72 2   
    75   71   83 1   
    76   73   74 1   
    77   73   75 1   
    78   73   78 1   
    79   74   80 1   
    80   74   81 1   
    81   74   82 1   
    82   75   79 1   
    83   83   84 1   
    84   83   91 1   
    85   84   85 1   
    86   84   87 1   
    87   84   92 1   
    88   85   86 2   
    89   85  102 1   
    90   87   88 1   
    91   87   89 1   
    92   87   93 1   
    93   88   90 1   
    94   88   94 1   
    95   88   95 1   
    96   89   96 1   
    97   89   97 1   
    98   89   98 1   
    99   90   99 1   
   100   90  100 1   
   101   90  101 1   
   102  102  103 1   
   103  102  110 1   
   104  103  104 1   
   105  103  106 1   
   106  103  111 1   
   107  104  105 2   
   108  104  114 1   
   109  106  107 1   
   110  106  112 1   
   111  106  113 1   
   112  107  108 1   
   113  107  109 1   
   114  114  115 1   
   115  114  125 1   
   116  115  116 1   
   117  115  118 1   
   118  115  126 1   
   119  116  117 2   
   120  116  134 1   
   121  118  119 1   
   122  118  127 1   
   123  118  128 1   
   124  119  120 ar  
   125  119  121 ar  
   126  120  122 ar  
   127  120  129 1   
   128  121  123 ar  
   129  121  130 1   
   130  122  124 ar  
   131  122  131 1   
   132  123  124 ar  
   133  123  132 1   
   134  124  133 1   
   135  134  135 1   
   136  134  140 1   
   137  135  136 1   
   138  135  138 1   
   139  135  141 1   
   140  136  137 2   
   141  136  148 1   
   142  138  139 1   
   143  138  142 1   
   144  138  143 1   
   145  139  140 1   
   146  139  144 1   
   147  139  145 1   
   148  140  146 1   
   149  140  147 1   
   150  148  149 1   
   151  148  157 1   
   152  149  150 1   
   153  149  152 1   
   154  149  158 1   
   155  150  151 2   
   156  150  163 1   
   157  152  153 1   
   158  152  159 1   
   159  152  160 1   
   160  153  154 1   
   161  153  161 1   
   162  153  162 1   
   163  154  155 1   
   164  154  156 1   
   165  163  164 1   
   166  163  168 1   
   167  164  165 1   
   168  164  166 1   
   169  164  167 1   
   170  170  171 1   
   171  170  172 1   
   172  173  174 1   
   173  173  175 1   
   174  176  177 1   
   175  176  178 1   
   176  179  180 1   
   177  179  181 1   
@<TRIPOS>SUBSTRUCTURE
     1 MOL         1 TEMP              0 ****  ****    0 ROOT
