@<TRIPOS>MOLECULE
MOL
  182   178     1     0     0
SMALL
resp


@<TRIPOS>ATOM
      1 C1          7.1480    2.0160    2.9190 c3        1 MOL     -0.541204
      2 C2          7.1810    1.0330    1.7500 c         1 MOL      0.769671
      3 O1          6.1320    0.4020    1.4770 o         1 MOL     -0.575437
      4 H1          6.1940    1.9300    3.4380 hc        1 MOL      0.135441
      5 H2          7.9590    1.7870    3.6100 hc        1 MOL      0.135441
      6 H3          7.2670    3.0330    2.5430 hc        1 MOL      0.135441
      7 N1          8.3640    0.9400    1.1420 n         1 MOL     -0.629350
      8 C3          8.6840    0.0780    0.0450 c3        1 MOL      0.107069
      9 C4          8.3530   -1.4030    0.2460 c         1 MOL      0.431650
     10 O2          8.5000   -2.1680   -0.6860 o         1 MOL     -0.527787
     11 C5          8.0380    0.5590   -1.2640 c3        1 MOL     -0.264846
     12 C6          8.4280    1.9550   -1.5510 c         1 MOL      0.789357
     13 O3          7.7240    2.6770   -2.2710 o         1 MOL     -0.697877
     14 O4          9.5320    2.3880   -1.2100 o         1 MOL     -0.697877
     15 H4          9.0520    1.6200    1.4420 hn        1 MOL      0.337313
     16 H5          9.7610    0.1300   -0.1110 h1        1 MOL      0.086785
     17 H6          6.9650    0.4510   -1.1410 hc        1 MOL      0.082447
     18 H7          8.3680   -0.1130   -2.0630 hc        1 MOL      0.082447
     19 N2          7.9820   -1.7640    1.4410 n         1 MOL     -0.350928
     20 C7          7.5600   -3.1100    1.8610 c3        1 MOL      0.094587
     21 C8          6.2510   -3.6230    1.3300 c         1 MOL      0.511176
     22 O5          5.6450   -4.5650    1.9130 o         1 MOL     -0.546783
     23 C9          7.6590   -3.2470    3.4270 c3        1 MOL     -0.200464
     24 C10         6.9420   -2.0950    4.1820 c3        1 MOL      0.074542
     25 C11         7.0260   -2.1660    5.7220 c3        1 MOL     -0.013727
     26 C12         6.3700   -0.9240    6.3600 c3        1 MOL      0.002054
     27 N3          4.9900   -0.8250    6.0950 n4        1 MOL     -0.150289
     28 H8          7.9280   -0.9340    2.0140 hn        1 MOL      0.192071
     29 H9          8.1980   -3.8670    1.4090 h1        1 MOL      0.088708
     30 H10         8.7180   -3.1020    3.6560 hc        1 MOL      0.062251
     31 H11         7.3020   -4.2260    3.7690 hc        1 MOL      0.062251
     32 H12         5.8900   -2.1260    3.8980 hc        1 MOL     -0.010757
     33 H13         7.3130   -1.1350    3.8210 hc        1 MOL     -0.010757
     34 H14         8.0250   -2.2000    6.1760 hc        1 MOL      0.052502
     35 H15         6.5310   -3.0950    6.0200 hc        1 MOL      0.052502
     36 H16         6.8620    0.0050    6.0960 hx        1 MOL      0.050907
     37 H17         6.5030   -1.1410    7.4250 hx        1 MOL      0.050907
     38 H18         4.4600   -1.6650    6.3140 hn        1 MOL      0.241427
     39 H19         4.5330   -0.1120    6.6400 hn        1 MOL      0.241427
     40 H20         4.8020   -0.6250    5.1210 hn        1 MOL      0.241427
     41 N4          5.7980   -2.9690    0.2700 n         1 MOL     -0.495477
     42 C13         4.5210   -3.0900   -0.3230 c3        1 MOL     -0.015097
     43 C14         4.5710   -2.5160   -1.7510 c         1 MOL      0.562030
     44 O6          5.1220   -1.4420   -2.0030 o         1 MOL     -0.523921
     45 C15         3.5450   -2.3070    0.6620 c3        1 MOL     -0.113663
     46 C16         2.1680   -1.9130    0.0640 c         1 MOL      0.835889
     47 O7          1.4380   -1.0990    0.7050 o         1 MOL     -0.828436
     48 O8          1.7560   -2.3930   -1.0100 o         1 MOL     -0.828436
     49 H21         6.4010   -2.2670   -0.1110 hn        1 MOL      0.375910
     50 H22         4.0800   -4.0860   -0.3200 h1        1 MOL      0.074571
     51 H23         3.9450   -1.3430    0.9460 hc        1 MOL      0.053417
     52 H24         3.3290   -2.8810    1.5660 hc        1 MOL      0.053417
     53 N5          4.0950   -3.3320   -2.6810 n         1 MOL     -0.351508
     54 C17         4.3510   -3.3190   -4.1070 c3        1 MOL     -0.204915
     55 C18         3.8360   -2.0650   -4.8100 c         1 MOL      0.547655
     56 O9          4.0190   -1.9220   -6.0230 o         1 MOL     -0.557479
     57 H25         3.6110   -4.1280   -2.3020 hn        1 MOL      0.297670
     58 H26         3.9230   -4.2080   -4.5640 h1        1 MOL      0.129778
     59 H27         5.4050   -3.2980   -4.3790 h1        1 MOL      0.129778
     60 N6          2.9210   -1.2800   -4.1380 n         1 MOL     -0.248199
     61 C19         2.2850   -0.0480   -4.5900 c3        1 MOL     -0.152754
     62 C20         1.9720    0.8650   -3.4540 c         1 MOL      0.635091
     63 O10         1.5470    0.4680   -2.3720 o         1 MOL     -0.586209
     64 C21         1.0830   -0.3890   -5.4540 c3        1 MOL     -0.112652
     65 C22         0.0530   -1.1950   -4.7350 c         1 MOL      0.592429
     66 N7         -1.0130   -1.5600   -5.4030 n         1 MOL     -0.625185
     67 O11         0.1770   -1.5160   -3.5460 o         1 MOL     -0.645432
     68 H28         2.7560   -1.5710   -3.1800 hn        1 MOL      0.338037
     69 H29         3.0440    0.4970   -5.1660 h1        1 MOL      0.102228
     70 H30         1.3240   -0.9200   -6.3790 hc        1 MOL      0.059964
     71 H31         0.6360    0.5250   -5.8420 hc        1 MOL      0.059964
     72 H32        -1.0290   -1.2350   -6.3610 hn        1 MOL      0.320552
     73 H33        -1.6310   -2.1730   -4.8890 hn        1 MOL      0.320552
     74 N8          2.0130    2.1770   -3.7450 n         1 MOL     -0.500151
     75 C23         2.0660    3.1420   -2.6850 c3        1 MOL     -0.103884
     76 C24         0.6380    3.3960   -1.9510 c         1 MOL      0.481872
     77 O12        -0.4400    3.4020   -2.5850 o         1 MOL     -0.521887
     78 H34         2.3610    2.4390   -4.6590 hn        1 MOL      0.344778
     79 H35         2.5390    4.0910   -2.9600 h1        1 MOL      0.136754
     80 H36         2.7640    2.7710   -1.9390 h1        1 MOL      0.136754
     81 N9          0.6590    3.7180   -0.6960 n         1 MOL     -0.461953
     82 C25        -0.6300    3.8290    0.0680 c3        1 MOL     -0.002445
     83 C26        -1.5000    2.5920    0.2390 c         1 MOL      0.479828
     84 O13        -1.0510    1.4860    0.0340 o         1 MOL     -0.504605
     85 C27        -0.1440    4.2510    1.4540 c3        1 MOL     -0.118928
     86 C28         0.7490    5.4650    1.5310 ca        1 MOL     -0.014657
     87 C29         1.8440    5.5680    2.3770 ca        1 MOL     -0.074499
     88 C30         0.4870    6.5730    0.6850 ca        1 MOL     -0.074499
     89 C31         2.6600    6.6950    2.4130 ca        1 MOL     -0.324379
     90 C32         1.3530    7.7270    0.6030 ca        1 MOL     -0.324379
     91 C33         2.5190    7.7570    1.4520 ca        1 MOL      0.368325
     92 O14         3.2070    8.9670    1.4990 oh        1 MOL     -0.475449
     93 H37         1.5420    3.9030   -0.2260 hn        1 MOL      0.313591
     94 H38        -1.1970    4.6040   -0.4610 h1        1 MOL      0.117639
     95 H39         0.3480    3.4700    2.0270 hc        1 MOL      0.092364
     96 H40        -1.0510    4.5090    2.0120 hc        1 MOL      0.092364
     97 H41         1.9880    4.8370    3.1580 ha        1 MOL      0.108103
     98 H42        -0.3940    6.6120    0.0620 ha        1 MOL      0.108103
     99 H43         3.2920    6.9580    3.2580 ha        1 MOL      0.177389
    100 H44         1.1780    8.5950   -0.0130 ha        1 MOL      0.177389
    101 H45         3.0030    9.4390    0.6950 ho        1 MOL      0.361646
    102 N10        -2.7800    2.8080    0.6180 n         1 MOL     -0.284804
    103 C34        -3.6000    1.7300    1.1860 c3        1 MOL     -0.274245
    104 C35        -4.9560    1.6520    0.4930 c         1 MOL      0.338419
    105 O15        -5.3710    0.5490    0.2450 o         1 MOL     -0.349349
    106 C36        -3.7440    1.8580    2.7220 c3        1 MOL      0.087093
    107 C37        -4.3420    3.1600    3.2970 c3        1 MOL      0.262089
    108 C38        -2.4100    1.3720    3.3360 c3        1 MOL     -0.151409
    109 C39        -4.5720    3.1660    4.7790 c3        1 MOL     -0.082793
    110 H46        -3.2230    3.7090    0.6890 hn        1 MOL      0.181650
    111 H47        -3.0600    0.8120    0.9620 h1        1 MOL      0.342417
    112 H48        -4.4360    1.1010    3.0750 hc        1 MOL      0.013282
    113 H49        -5.2600    3.4050    2.7690 hc        1 MOL     -0.095520
    114 H50        -3.6790    4.0350    3.2640 hc        1 MOL     -0.095520
    115 H51        -2.5800    1.1600    4.3900 hc        1 MOL      0.035108
    116 H52        -2.1450    0.4610    2.7830 hc        1 MOL      0.035108
    117 H53        -1.6420    2.1320    3.2090 hc        1 MOL      0.035108
    118 H54        -5.1860    2.3090    5.0490 hc        1 MOL      0.017188
    119 H55        -3.5820    3.1180    5.2500 hc        1 MOL      0.017188
    120 H56        -5.1790    4.0240    5.0690 hc        1 MOL      0.017188
    121 N11        -5.5060    2.7440    0.0700 n         1 MOL     -0.348531
    122 C40        -6.4450    2.7980   -1.0680 c3        1 MOL      0.077123
    123 C41        -7.7600    2.0890   -0.7840 c         1 MOL      0.306528
    124 O16        -8.4880    1.7630   -1.7230 o         1 MOL     -0.474523
    125 C42        -6.7670    4.2650   -1.5510 c3        1 MOL      0.297995
    126 O17        -5.5290    4.6790   -2.0320 oh        1 MOL     -0.622481
    127 H57        -5.0860    3.6280    0.3210 hn        1 MOL      0.274641
    128 H58        -6.0900    2.2530   -1.9430 h1        1 MOL      0.126814
    129 H59        -6.9720    4.9480   -0.7160 h1        1 MOL      0.006644
    130 H60        -7.5930    4.3180   -2.2550 h1        1 MOL      0.006644
    131 H61        -5.4160    5.5770   -1.7230 ho        1 MOL      0.406017
    132 N12        -8.1020    1.8160    0.5150 n         1 MOL     -0.577101
    133 C43        -9.2640    1.0560    0.9060 c3        1 MOL      0.537040
    134 C44        -9.1900   -0.4290    0.4940 c         1 MOL      0.321766
    135 O18       -10.1600   -1.1000    0.6680 o         1 MOL     -0.546958
    136 C45       -10.5550    1.7780    0.6560 c3        1 MOL     -0.487583
    137 H62        -7.4970    2.1190    1.2620 hn        1 MOL      0.309989
    138 H63        -9.1990    0.9570    1.9950 h1        1 MOL     -0.029276
    139 H64       -10.5770    2.0300   -0.4040 hc        1 MOL      0.131281
    140 H65       -11.4640    1.1800    0.7280 hc        1 MOL      0.131281
    141 H66       -10.5890    2.6140    1.3570 hc        1 MOL      0.131281
    142 N13        -8.0690   -0.9000    0.0240 n         1 MOL     -0.220987
    143 C46        -7.8570   -2.3030   -0.3490 c3        1 MOL      0.494111
    144 C47        -6.7030   -2.9570    0.4160 c         1 MOL      0.256916
    145 O19        -6.0930   -2.3060    1.2830 o         1 MOL     -0.530484
    146 C48        -7.5310   -2.2060   -1.8530 c3        1 MOL     -0.276068
    147 H67        -7.2340   -0.3440    0.0680 hn        1 MOL      0.087387
    148 H68        -8.6420   -3.0470   -0.2240 h1        1 MOL     -0.052469
    149 H69        -6.6010   -1.6730   -2.0070 hc        1 MOL      0.062620
    150 H70        -7.3950   -3.2080   -2.2660 hc        1 MOL      0.062620
    151 H71        -8.3750   -1.6660   -2.2820 hc        1 MOL      0.062620
    152 N14        -6.4460   -4.2430    0.1450 n         1 MOL     -0.337880
    153 C49        -5.4810   -5.0930    0.8260 c3        1 MOL     -0.322163
    154 C50        -5.5950   -5.3830    2.3930 c         1 MOL      0.443364
    155 O20        -5.1080   -6.4140    2.9050 o         1 MOL     -0.507196
    156 C51        -4.0190   -4.6730    0.7100 c3        1 MOL      0.398787
    157 C52        -3.6400   -4.2330   -0.7270 c3        1 MOL     -0.146834
    158 C53        -2.1250   -4.1880   -0.9620 c         1 MOL      0.575086
    159 O21        -1.4400   -5.1110   -0.5310 o         1 MOL     -0.630892
    160 O22        -1.5650   -3.1830   -1.5670 o         1 MOL     -0.630892
    161 H72        -6.9490   -4.6080   -0.6530 hn        1 MOL      0.316833
    162 H73        -5.6330   -6.0700    0.3640 h1        1 MOL      0.164626
    163 H74        -3.3760   -5.5340    0.9220 hc        1 MOL     -0.036374
    164 H75        -3.7150   -3.9660    1.4770 hc        1 MOL     -0.036374
    165 H76        -4.0360   -3.2340   -0.9200 hc        1 MOL     -0.017463
    166 H77        -4.1380   -4.9070   -1.4160 hc        1 MOL     -0.017463
    167 N15        -6.2980   -4.6210    3.2690 n         1 MOL     -0.269504
    168 C54        -6.2720   -4.7240    4.7210 c3        1 MOL     -0.089456
    169 H78        -7.2540   -5.0300    5.0800 h1        1 MOL      0.067262
    170 H79        -5.5290   -5.4630    5.0210 h1        1 MOL      0.067262
    171 H80        -6.0150   -3.7550    5.1490 h1        1 MOL      0.067262
    172 H81        -6.6640   -3.7460    2.9380 hn        1 MOL      0.250093
    173 Ca1        -0.4460   -0.8600   -1.1210 Ca        1 MOL      1.716529
    174 O23        -1.5190    0.8730   -2.9330 oh        1 MOL     -0.803489
    175 H82        -2.1430    0.8490   -3.6560 ho        1 MOL      0.387388
    176 H83        -0.9350    1.6010   -3.1480 ho        1 MOL      0.387388
    177 O24        -3.5060   -0.5110   -1.3570 oh        1 MOL     -0.803489
    178 H84        -3.8700   -0.9380   -2.1380 ho        1 MOL      0.387388
    179 H85        -4.2120    0.0370   -1.0380 ho        1 MOL      0.387388
    180 O25        -2.0180   -1.6380    1.1540 oh        1 MOL     -0.803489
    181 H86        -1.5950   -2.3180    1.6680 ho        1 MOL      0.387388
    182 H87        -2.9310   -1.6680    1.4090 ho        1 MOL      0.387388
@<TRIPOS>BOND
     1    1    2 1   
     2    1    4 1   
     3    1    5 1   
     4    1    6 1   
     5    2    3 2   
     6    2    7 1   
     7    7    8 1   
     8    7   15 1   
     9    8    9 1   
    10    8   11 1   
    11    8   16 1   
    12    9   10 2   
    13    9   19 1   
    14   11   12 1   
    15   11   17 1   
    16   11   18 1   
    17   12   13 1   
    18   12   14 1   
    19   19   20 1   
    20   19   28 1   
    21   20   21 1   
    22   20   23 1   
    23   20   29 1   
    24   21   22 2   
    25   21   41 1   
    26   23   24 1   
    27   23   30 1   
    28   23   31 1   
    29   24   25 1   
    30   24   32 1   
    31   24   33 1   
    32   25   26 1   
    33   25   34 1   
    34   25   35 1   
    35   26   27 1   
    36   26   36 1   
    37   26   37 1   
    38   27   38 1   
    39   27   39 1   
    40   27   40 1   
    41   41   42 1   
    42   41   49 1   
    43   42   43 1   
    44   42   45 1   
    45   42   50 1   
    46   43   44 2   
    47   43   53 1   
    48   45   46 1   
    49   45   51 1   
    50   45   52 1   
    51   46   47 1   
    52   46   48 1   
    53   53   54 1   
    54   53   57 1   
    55   54   55 1   
    56   54   58 1   
    57   54   59 1   
    58   55   56 2   
    59   55   60 1   
    60   60   61 1   
    61   60   68 1   
    62   61   62 1   
    63   61   64 1   
    64   61   69 1   
    65   62   63 2   
    66   62   74 1   
    67   64   65 1   
    68   64   70 1   
    69   64   71 1   
    70   65   66 1   
    71   65   67 2   
    72   66   72 1   
    73   66   73 1   
    74   74   75 1   
    75   74   78 1   
    76   75   76 1   
    77   75   79 1   
    78   75   80 1   
    79   76   77 2   
    80   76   81 1   
    81   81   82 1   
    82   81   93 1   
    83   82   83 1   
    84   82   85 1   
    85   82   94 1   
    86   83   84 2   
    87   83  102 1   
    88   85   86 1   
    89   85   95 1   
    90   85   96 1   
    91   86   87 ar  
    92   86   88 ar  
    93   87   89 ar  
    94   87   97 1   
    95   88   90 ar  
    96   88   98 1   
    97   89   91 ar  
    98   89   99 1   
    99   90   91 ar  
   100   90  100 1   
   101   91   92 1   
   102   92  101 1   
   103  102  103 1   
   104  102  110 1   
   105  103  104 1   
   106  103  106 1   
   107  103  111 1   
   108  104  105 2   
   109  104  121 1   
   110  106  107 1   
   111  106  108 1   
   112  106  112 1   
   113  107  109 1   
   114  107  113 1   
   115  107  114 1   
   116  108  115 1   
   117  108  116 1   
   118  108  117 1   
   119  109  118 1   
   120  109  119 1   
   121  109  120 1   
   122  121  122 1   
   123  121  127 1   
   124  122  123 1   
   125  122  125 1   
   126  122  128 1   
   127  123  124 2   
   128  123  132 1   
   129  125  126 1   
   130  125  129 1   
   131  125  130 1   
   132  126  131 1   
   133  132  133 1   
   134  132  137 1   
   135  133  134 1   
   136  133  136 1   
   137  133  138 1   
   138  134  135 2   
   139  134  142 1   
   140  136  139 1   
   141  136  140 1   
   142  136  141 1   
   143  142  143 1   
   144  142  147 1   
   145  143  144 1   
   146  143  146 1   
   147  143  148 1   
   148  144  145 2   
   149  144  152 1   
   150  146  149 1   
   151  146  150 1   
   152  146  151 1   
   153  152  153 1   
   154  152  161 1   
   155  153  154 1   
   156  153  156 1   
   157  153  162 1   
   158  154  155 2   
   159  154  167 1   
   160  156  157 1   
   161  156  163 1   
   162  156  164 1   
   163  157  158 1   
   164  157  165 1   
   165  157  166 1   
   166  158  159 1   
   167  158  160 1   
   168  167  168 1   
   169  167  172 1   
   170  168  169 1   
   171  168  170 1   
   172  168  171 1   
   173  174  175 1   
   174  174  176 1   
   175  177  178 1   
   176  177  179 1   
   177  180  181 1   
   178  180  182 1   
@<TRIPOS>SUBSTRUCTURE
     1 MOL         1 TEMP              0 ****  ****    0 ROOT
