@<TRIPOS>MOLECULE
MOL
  189   185     1     0     0
SMALL
resp


@<TRIPOS>ATOM
      1 C1          3.7620    4.1560   -4.0490 c3        1 MOL     -0.313020
      2 C2          4.5650    3.3710   -2.9470 c         1 MOL      0.639554
      3 O1          4.0130    2.9990   -1.8970 o         1 MOL     -0.563925
      4 H1          2.8620    4.5830   -3.6060 hc        1 MOL      0.082979
      5 H2          4.3830    4.9570   -4.4500 hc        1 MOL      0.082979
      6 H3          3.4830    3.4740   -4.8520 hc        1 MOL      0.082979
      7 N1          5.8350    3.0340   -3.2270 n         1 MOL     -0.491699
      8 C3          6.7130    2.0850   -2.5160 c3        1 MOL      0.288488
      9 C4          5.9720    0.7940   -2.0970 c         1 MOL      0.273006
     10 O2          5.6140    0.6090   -0.9840 o         1 MOL     -0.329364
     11 C5          7.6530    2.8090   -1.5190 c3        1 MOL     -0.347568
     12 C6          6.9430    3.7890   -0.6130 c         1 MOL      0.696637
     13 O3          6.0540    3.2580    0.1790 o         1 MOL     -0.678133
     14 O4          7.1310    5.0120   -0.7080 o         1 MOL     -0.678133
     15 H4          6.1940    3.2950   -4.1360 hn        1 MOL      0.269886
     16 H5          7.3290    1.8040   -3.3620 h1        1 MOL      0.005863
     17 H6          8.4190    3.2730   -2.1440 hc        1 MOL      0.075623
     18 H7          8.1390    2.0850   -0.8700 hc        1 MOL      0.075623
     19 N2          5.7620   -0.1240   -3.0580 n         1 MOL     -0.613604
     20 C7          5.1440   -1.4670   -2.9650 c3        1 MOL      0.291048
     21 C8          5.9790   -2.5290   -2.1820 c         1 MOL      0.402928
     22 O5          6.4170   -3.5200   -2.6750 o         1 MOL     -0.549558
     23 C9          3.6760   -1.2850   -2.5230 c3        1 MOL      0.119710
     24 C10         2.8910   -2.6750   -2.6050 c3        1 MOL     -0.204693
     25 C11         2.9560   -0.3770   -3.5070 c3        1 MOL     -0.099138
     26 C12         2.7920   -3.4850   -3.9370 c3        1 MOL     -0.260023
     27 H8          5.9780    0.0670   -4.0270 hn        1 MOL      0.309604
     28 H9          5.1610   -1.7730   -4.0040 h1        1 MOL     -0.015832
     29 H10         3.7120   -0.9120   -1.5000 hc        1 MOL     -0.118432
     30 H11         1.8570   -2.4820   -2.3270 hc        1 MOL      0.100596
     31 H12         3.2920   -3.3970   -1.8930 hc        1 MOL      0.100596
     32 H13         2.9240   -0.8330   -4.4930 hc        1 MOL      0.021868
     33 H14         1.9480   -0.1030   -3.1970 hc        1 MOL      0.021868
     34 H15         3.5280    0.5460   -3.6510 hc        1 MOL      0.021868
     35 H16         3.8050   -3.7570   -4.2150 hc        1 MOL      0.065252
     36 H17         2.2290   -4.3890   -3.7040 hc        1 MOL      0.065252
     37 H18         2.2710   -2.9030   -4.7060 hc        1 MOL      0.065252
     38 N3          6.3680   -2.1010   -0.9570 n         1 MOL     -0.342991
     39 C13         7.2070   -2.9150   -0.0310 c3        1 MOL      0.193924
     40 C14         6.4940   -4.1950    0.5330 c         1 MOL      0.680222
     41 O6          6.9610   -5.2970    0.3400 o         1 MOL     -0.612230
     42 C15         7.6650   -1.8180    0.9730 c3        1 MOL     -0.317689
     43 C16         8.7420   -2.2870    2.0030 c         1 MOL      0.696604
     44 O7          9.0210   -3.4960    2.1520 o         1 MOL     -0.727498
     45 O8          9.2880   -1.3890    2.7180 o         1 MOL     -0.727498
     46 H19         5.9330   -1.2420   -0.6560 hn        1 MOL      0.354372
     47 H20         8.1560   -3.2300   -0.4680 h1        1 MOL      0.017744
     48 H21         6.8030   -1.4200    1.5100 hc        1 MOL      0.051029
     49 H22         8.0660   -0.9680    0.4180 hc        1 MOL      0.051029
     50 N4          5.2980   -4.0880    1.0480 n         1 MOL     -0.646993
     51 C17         4.4710   -2.9730    1.5440 c3        1 MOL      0.319908
     52 C18         4.6400   -2.6170    2.9940 c         1 MOL      0.388563
     53 O9          5.6980   -2.7810    3.6070 o         1 MOL     -0.467223
     54 H23         5.0460   -5.0110    1.3850 hn        1 MOL      0.302674
     55 H24         3.4540   -3.3380    1.4250 h1        1 MOL     -0.029767
     56 H25         4.7000   -2.1120    0.9170 h1        1 MOL     -0.029767
     57 N5          3.6540   -2.0680    3.6660 n         1 MOL     -0.317301
     58 C19         2.3590   -1.7590    3.2220 c3        1 MOL     -0.046281
     59 C20         2.3100   -0.8620    1.9590 c         1 MOL      0.283815
     60 O10         3.3090   -0.2740    1.6560 o         1 MOL     -0.369459
     61 C21         1.8370   -1.0700    4.5060 c3        1 MOL     -0.185719
     62 C22         2.5010    0.2760    4.8330 c         1 MOL      0.713351
     63 O11         3.6020    0.2870    5.5110 o         1 MOL     -0.678763
     64 O12         1.9450    1.3410    4.5680 o         1 MOL     -0.678763
     65 H26         3.8700   -1.8550    4.6290 hn        1 MOL      0.222490
     66 H27         1.8020   -2.6780    3.0770 h1        1 MOL      0.079186
     67 H28         1.8210   -1.6760    5.4110 hc        1 MOL      0.051549
     68 H29         0.7660   -0.9730    4.3060 hc        1 MOL      0.051549
     69 N6          1.1720   -0.8190    1.2200 n         1 MOL     -0.192765
     70 C23        -0.1120   -1.3660    1.4720 c3        1 MOL     -0.012794
     71 C24        -0.3170   -2.7890    0.8960 c         1 MOL      0.506952
     72 O13         0.6750   -3.4570    0.7470 o         1 MOL     -0.520740
     73 H30         1.2370   -0.2600    0.3800 hn        1 MOL      0.215847
     74 H31        -0.8780   -0.7330    1.0100 h1        1 MOL      0.048051
     75 H32        -0.3670   -1.3930    2.5350 h1        1 MOL      0.048051
     76 N7         -1.5520   -3.1840    0.6140 n         1 MOL     -0.352884
     77 C25        -1.9110   -4.5170    0.1430 c3        1 MOL      0.055038
     78 C26        -2.6420   -4.5200   -1.1870 c         1 MOL      0.370686
     79 O14        -2.6870   -5.5380   -1.8870 o         1 MOL     -0.487789
     80 C27        -2.5180   -5.3350    1.2620 c3        1 MOL     -0.169119
     81 C28        -3.8280   -4.9450    1.8770 c3        1 MOL     -0.133757
     82 C29        -4.9260   -4.5600    0.9510 c         1 MOL      0.558249
     83 N8         -5.5810   -5.4490    0.2120 n         1 MOL     -0.703857
     84 O15        -5.3240   -3.4470    0.9120 o         1 MOL     -0.587241
     85 H33        -2.2950   -2.5130    0.7920 hn        1 MOL      0.221542
     86 H34        -0.9270   -4.9820    0.0310 h1        1 MOL      0.122151
     87 H35        -1.7710   -5.3840    2.0620 hc        1 MOL      0.082178
     88 H36        -2.6850   -6.3730    1.0100 hc        1 MOL      0.082178
     89 H37        -3.6520   -4.0580    2.4780 hc        1 MOL      0.072276
     90 H38        -4.1720   -5.7390    2.5400 hc        1 MOL      0.072276
     91 H39        -5.4630   -6.4470    0.2780 hn        1 MOL      0.334648
     92 H40        -6.3610   -5.0820   -0.3160 hn        1 MOL      0.334648
     93 N9         -3.2960   -3.3650   -1.4790 n         1 MOL     -0.292136
     94 C30        -3.6930   -3.1380   -2.9250 c3        1 MOL     -0.298673
     95 C31        -5.0360   -2.3680   -3.1030 c         1 MOL      0.393587
     96 O16        -5.5720   -2.3160   -4.2280 o         1 MOL     -0.517749
     97 C32        -2.6050   -2.4250   -3.6850 c3        1 MOL      0.257926
     98 C33        -1.3470   -3.2920   -3.8500 c3        1 MOL     -0.289393
     99 C34        -2.2470   -1.0540   -3.1550 c3        1 MOL     -0.289393
    100 H41        -3.2540   -2.6150   -0.8010 hn        1 MOL      0.272985
    101 H42        -3.8780   -4.1300   -3.3500 h1        1 MOL      0.200219
    102 H43        -2.9260   -2.3260   -4.7170 hc        1 MOL      0.017912
    103 H44        -0.7710   -2.8480   -4.6600 hc        1 MOL      0.077308
    104 H45        -0.8400   -3.2560   -2.8920 hc        1 MOL      0.077308
    105 H46        -1.5690   -4.3550   -3.9100 hc        1 MOL      0.077308
    106 H47        -2.1370   -1.0790   -2.0750 hc        1 MOL      0.077308
    107 H48        -1.4040   -0.6450   -3.7090 hc        1 MOL      0.077308
    108 H49        -3.1000   -0.3870   -3.3390 hc        1 MOL      0.077308
    109 N10        -5.6850   -1.9770   -1.9920 n         1 MOL     -0.164371
    110 C35        -6.9560   -1.2730   -1.9240 c3        1 MOL     -0.030188
    111 C36        -7.1270    0.1760   -1.3820 c         1 MOL      0.474922
    112 O17        -8.0960    0.8190   -1.7560 o         1 MOL     -0.541404
    113 C37        -7.9890   -2.1250   -1.1990 c3        1 MOL      0.083729
    114 C38        -8.1300   -3.5700   -1.7000 c         1 MOL      0.552343
    115 N11        -8.3400   -3.7160   -2.9840 n         1 MOL     -0.706856
    116 O18        -8.1430   -4.5190   -0.9440 o         1 MOL     -0.559186
    117 H50        -5.1650   -2.2280   -1.1600 hn        1 MOL      0.278405
    118 H51        -7.2080   -1.2540   -2.9870 h1        1 MOL      0.067021
    119 H52        -8.9680   -1.6430   -1.2500 hc        1 MOL     -0.034223
    120 H53        -7.7950   -2.1640   -0.1330 hc        1 MOL     -0.034223
    121 H54        -8.4490   -2.9730   -3.6520 hn        1 MOL      0.348030
    122 H55        -8.4810   -4.7000   -3.1350 hn        1 MOL      0.348030
    123 N12        -6.1840    0.7370   -0.6680 n         1 MOL     -0.471449
    124 C39        -6.3890    2.0700   -0.0520 c3        1 MOL      0.398798
    125 C40        -5.0640    2.7910    0.1480 c         1 MOL      0.308020
    126 O19        -4.0310    2.1860    0.3550 o         1 MOL     -0.388349
    127 C41        -7.2420    2.0010    1.2240 c3        1 MOL     -0.372831
    128 C42        -6.8290    0.9670    2.2140 ca        1 MOL      0.075355
    129 C43        -7.4330   -0.2720    2.0480 ca        1 MOL     -0.114578
    130 C44        -5.8190    1.1270    3.1820 ca        1 MOL     -0.114578
    131 C45        -7.0120   -1.3770    2.8480 ca        1 MOL     -0.399781
    132 C46        -5.4010    0.0530    3.9870 ca        1 MOL     -0.399781
    133 C47        -5.8900   -1.2430    3.6920 ca        1 MOL      0.474611
    134 O20        -5.4910   -2.3800    4.3440 oh        1 MOL     -0.502894
    135 H56        -5.3730    0.1840   -0.4410 hn        1 MOL      0.231092
    136 H57        -7.0020    2.7210   -0.6830 h1        1 MOL      0.008528
    137 H58        -8.3160    1.8940    1.0890 hc        1 MOL      0.117024
    138 H59        -7.1980    2.8880    1.8570 hc        1 MOL      0.117024
    139 H60        -8.1680   -0.4420    1.2710 ha        1 MOL      0.169142
    140 H61        -5.4180    2.1020    3.4470 ha        1 MOL      0.169142
    141 H62        -7.3550   -2.3860    2.6750 ha        1 MOL      0.221191
    142 H63        -4.5990    0.1170    4.7080 ha        1 MOL      0.221191
    143 H64        -5.9150   -3.1560    3.9760 ho        1 MOL      0.309914
    144 N13        -5.1520    4.1280    0.2170 n         1 MOL     -0.575962
    145 C48        -4.1030    5.1100    0.6200 c3        1 MOL     -0.002454
    146 C49        -2.7510    5.1550   -0.1730 c         1 MOL      0.156837
    147 O21        -2.0790    6.2260   -0.1490 o         1 MOL     -0.469242
    148 C50        -3.7620    4.8630    2.1110 c3        1 MOL      0.234933
    149 C51        -4.8360    5.1340    3.1370 c3        1 MOL     -0.373768
    150 C52        -4.3630    4.9600    4.6430 c         1 MOL      0.854224
    151 O22        -5.0440    5.3880    5.5860 o         1 MOL     -0.757663
    152 O23        -3.2490    4.4730    4.8090 o         1 MOL     -0.757663
    153 H65        -6.0220    4.6010    0.0230 hn        1 MOL      0.328248
    154 H66        -4.5060    6.1140    0.5160 h1        1 MOL      0.105939
    155 H67        -2.8020    5.3290    2.3400 hc        1 MOL      0.036374
    156 H68        -3.6270    3.7910    2.2090 hc        1 MOL      0.036374
    157 H69        -5.6400    4.4100    3.0110 hc        1 MOL      0.014394
    158 H70        -5.1840    6.1710    3.0640 hc        1 MOL      0.014394
    159 N14        -2.4130    4.1490   -1.0390 n         1 MOL      0.074513
    160 C53        -1.1970    4.1440   -1.8960 c3        1 MOL     -0.040621
    161 C54        -1.5150    4.9100   -3.2500 c         1 MOL      0.399429
    162 O24        -0.5390    5.4420   -3.7790 o         1 MOL     -0.516810
    163 C55        -0.6660    2.6830   -2.1430 c3        1 MOL      0.059934
    164 C56        -0.4740    1.8750   -0.8500 c3        1 MOL      0.349648
    165 C57         0.9120    1.9810   -0.3770 c         1 MOL      0.386567
    166 O25         1.2280    2.6890    0.6220 o         1 MOL     -0.608989
    167 O26         1.8080    1.2910   -0.8260 o         1 MOL     -0.608989
    168 H71        -2.8780    3.2480   -1.0330 hn        1 MOL      0.118847
    169 H72        -0.4410    4.7300   -1.3800 h1        1 MOL      0.102891
    170 H73         0.2300    2.6770   -2.7640 hc        1 MOL     -0.027995
    171 H74        -1.4400    2.2070   -2.7480 hc        1 MOL     -0.027995
    172 H75        -0.6630    0.8320   -1.1070 hc        1 MOL     -0.155800
    173 H76        -1.2210    2.2640   -0.1600 hc        1 MOL     -0.155800
    174 N15        -2.7850    4.9700   -3.5580 n         1 MOL     -0.229358
    175 C58        -3.3530    5.7800   -4.7020 c3        1 MOL     -0.217021
    176 H77        -4.2710    6.2710   -4.3780 h1        1 MOL      0.099434
    177 H78        -2.6270    6.5330   -5.0100 h1        1 MOL      0.099434
    178 H79        -3.5710    5.1200   -5.5410 h1        1 MOL      0.099434
    179 H80        -3.4970    4.4540   -3.0660 hn        1 MOL      0.201737
    180 Ca1         3.8710    2.0110    0.5060 Ca        1 MOL      1.693942
    181 O27         6.0210    0.8550    1.6960 oh        1 MOL     -0.897363
    182 H81         6.9540    1.0810    1.6840 ho        1 MOL      0.425418
    183 H82         5.8920    0.4230    2.5450 ho        1 MOL      0.425418
    184 O28         3.5420    4.6930    0.5250 oh        1 MOL     -0.897363
    185 H83         2.6530    5.0250    0.6240 ho        1 MOL      0.425418
    186 H84         3.9120    5.2290   -0.1820 ho        1 MOL      0.425418
    187 O29         3.3980    2.8140    3.0490 oh        1 MOL     -0.897363
    188 H85         2.9280    2.1880    3.6090 ho        1 MOL      0.425418
    189 H86         3.4050    3.6240    3.5520 ho        1 MOL      0.425418
@<TRIPOS>BOND
     1    1    2 1   
     2    1    4 1   
     3    1    5 1   
     4    1    6 1   
     5    2    3 2   
     6    2    7 1   
     7    7    8 1   
     8    7   15 1   
     9    8    9 1   
    10    8   11 1   
    11    8   16 1   
    12    9   10 2   
    13    9   19 1   
    14   11   12 1   
    15   11   17 1   
    16   11   18 1   
    17   12   13 1   
    18   12   14 1   
    19   19   20 1   
    20   19   27 1   
    21   20   21 1   
    22   20   23 1   
    23   20   28 1   
    24   21   22 2   
    25   21   38 1   
    26   23   24 1   
    27   23   25 1   
    28   23   29 1   
    29   24   26 1   
    30   24   30 1   
    31   24   31 1   
    32   25   32 1   
    33   25   33 1   
    34   25   34 1   
    35   26   35 1   
    36   26   36 1   
    37   26   37 1   
    38   38   39 1   
    39   38   46 1   
    40   39   40 1   
    41   39   42 1   
    42   39   47 1   
    43   40   41 2   
    44   40   50 1   
    45   42   43 1   
    46   42   48 1   
    47   42   49 1   
    48   43   44 1   
    49   43   45 1   
    50   50   51 1   
    51   50   54 1   
    52   51   52 1   
    53   51   55 1   
    54   51   56 1   
    55   52   53 2   
    56   52   57 1   
    57   57   58 1   
    58   57   65 1   
    59   58   59 1   
    60   58   61 1   
    61   58   66 1   
    62   59   60 2   
    63   59   69 1   
    64   61   62 1   
    65   61   67 1   
    66   61   68 1   
    67   62   63 1   
    68   62   64 1   
    69   69   70 1   
    70   69   73 1   
    71   70   71 1   
    72   70   74 1   
    73   70   75 1   
    74   71   72 2   
    75   71   76 1   
    76   76   77 1   
    77   76   85 1   
    78   77   78 1   
    79   77   80 1   
    80   77   86 1   
    81   78   79 2   
    82   78   93 1   
    83   80   81 1   
    84   80   87 1   
    85   80   88 1   
    86   81   82 1   
    87   81   89 1   
    88   81   90 1   
    89   82   83 1   
    90   82   84 2   
    91   83   91 1   
    92   83   92 1   
    93   93   94 1   
    94   93  100 1   
    95   94   95 1   
    96   94   97 1   
    97   94  101 1   
    98   95   96 2   
    99   95  109 1   
   100   97   98 1   
   101   97   99 1   
   102   97  102 1   
   103   98  103 1   
   104   98  104 1   
   105   98  105 1   
   106   99  106 1   
   107   99  107 1   
   108   99  108 1   
   109  109  110 1   
   110  109  117 1   
   111  110  111 1   
   112  110  113 1   
   113  110  118 1   
   114  111  112 2   
   115  111  123 1   
   116  113  114 1   
   117  113  119 1   
   118  113  120 1   
   119  114  115 1   
   120  114  116 2   
   121  115  121 1   
   122  115  122 1   
   123  123  124 1   
   124  123  135 1   
   125  124  125 1   
   126  124  127 1   
   127  124  136 1   
   128  125  126 2   
   129  125  144 1   
   130  127  128 1   
   131  127  137 1   
   132  127  138 1   
   133  128  129 ar  
   134  128  130 ar  
   135  129  131 ar  
   136  129  139 1   
   137  130  132 ar  
   138  130  140 1   
   139  131  133 ar  
   140  131  141 1   
   141  132  133 ar  
   142  132  142 1   
   143  133  134 1   
   144  134  143 1   
   145  144  145 1   
   146  144  153 1   
   147  145  146 1   
   148  145  148 1   
   149  145  154 1   
   150  146  147 2   
   151  146  159 1   
   152  148  149 1   
   153  148  155 1   
   154  148  156 1   
   155  149  150 1   
   156  149  157 1   
   157  149  158 1   
   158  150  151 1   
   159  150  152 1   
   160  159  160 1   
   161  159  168 1   
   162  160  161 1   
   163  160  163 1   
   164  160  169 1   
   165  161  162 2   
   166  161  174 1   
   167  163  164 1   
   168  163  170 1   
   169  163  171 1   
   170  164  165 1   
   171  164  172 1   
   172  164  173 1   
   173  165  166 1   
   174  165  167 1   
   175  174  175 1   
   176  174  179 1   
   177  175  176 1   
   178  175  177 1   
   179  175  178 1   
   180  181  182 1   
   181  181  183 1   
   182  184  185 1   
   183  184  186 1   
   184  187  188 1   
   185  187  189 1   
@<TRIPOS>SUBSTRUCTURE
     1 MOL         1 TEMP              0 ****  ****    0 ROOT
