@<TRIPOS>MOLECULE
MOL
  186   183     1     0     0
SMALL
resp


@<TRIPOS>ATOM
      1 C1          4.6230    3.9810   -3.4480 c3        1 MOL     -0.436460
      2 C2          5.4020    3.1490   -2.3170 c         1 MOL      0.785597
      3 O1          4.8150    2.9500   -1.2640 o         1 MOL     -0.561390
      4 H1          4.7770    5.0470   -3.2850 hc        1 MOL      0.115256
      5 H2          5.0060    3.7050   -4.4310 hc        1 MOL      0.115256
      6 H3          3.5580    3.7550   -3.3970 hc        1 MOL      0.115256
      7 N1          6.6990    2.7490   -2.4460 n         1 MOL     -0.771429
      8 C3          7.3930    1.6850   -1.7010 c3        1 MOL      0.091509
      9 C4          6.4850    0.4030   -1.4920 c         1 MOL      0.117110
     10 O2          5.9730    0.2250   -0.3470 o         1 MOL     -0.311262
     11 C5          8.1170    2.2630   -0.4540 c3        1 MOL     -0.039364
     12 C6          7.4860    3.4090    0.2500 c         1 MOL      0.762013
     13 O3          6.5640    3.0800    1.0720 o         1 MOL     -0.736273
     14 O4          7.9720    4.5440    0.3120 o         1 MOL     -0.736273
     15 H4          7.2130    3.2300   -3.1770 hn        1 MOL      0.352597
     16 H5          8.2080    1.3600   -2.3470 h1        1 MOL      0.098201
     17 H6          9.1710    2.5050   -0.6190 hc        1 MOL      0.009793
     18 H7          8.2350    1.4470    0.2630 hc        1 MOL      0.009793
     19 N2          6.0120   -0.1690   -2.6360 n         1 MOL     -0.186892
     20 C7          5.2260   -1.4010   -2.7500 c3        1 MOL      0.025200
     21 C8          5.8320   -2.6370   -2.0210 c         1 MOL      0.299827
     22 O5          5.9560   -3.6940   -2.6050 o         1 MOL     -0.530771
     23 C9          3.6950   -1.3860   -2.4520 c3        1 MOL      0.191968
     24 C10         3.0360   -2.7160   -2.9510 c3        1 MOL     -0.168774
     25 C11         3.0200   -0.1110   -2.8640 c3        1 MOL     -0.367821
     26 C12         2.6120   -2.7730   -4.4010 c3        1 MOL     -0.123382
     27 H8          6.4550    0.1600   -3.4810 hn        1 MOL      0.241811
     28 H9          5.3220   -1.6700   -3.7980 h1        1 MOL      0.055553
     29 H10         3.6740   -1.4650   -1.3610 hc        1 MOL     -0.103796
     30 H11         2.0540   -2.6550   -2.4870 hc        1 MOL      0.104057
     31 H12         3.5180   -3.6150   -2.5600 hc        1 MOL      0.104057
     32 H13         2.0420   -0.2630   -2.3920 hc        1 MOL      0.080130
     33 H14         3.5030    0.8070   -2.5260 hc        1 MOL      0.080130
     34 H15         2.9500   -0.1520   -3.9470 hc        1 MOL      0.080130
     35 H16         3.3560   -2.2830   -5.0380 hc        1 MOL      0.024342
     36 H17         2.5370   -3.7890   -4.7900 hc        1 MOL      0.024342
     37 H18         1.6110   -2.3980   -4.6130 hc        1 MOL      0.024342
     38 N3          6.3140   -2.5290   -0.7420 n         1 MOL     -0.004527
     39 C13         7.0580   -3.4230    0.0370 c3        1 MOL      0.055332
     40 C14         6.2250   -4.6980    0.5680 c         1 MOL      0.609290
     41 O6          6.7290   -5.7410    0.3070 o         1 MOL     -0.599280
     42 C15         7.5470   -2.6880    1.2370 c3        1 MOL     -0.224368
     43 C16         8.4560   -1.5190    0.8880 c         1 MOL      0.749426
     44 O7          8.9950   -1.3720   -0.2290 o         1 MOL     -0.710664
     45 O8          8.7180   -0.7440    1.8370 o         1 MOL     -0.710664
     46 H19         6.2470   -1.5820   -0.3840 hn        1 MOL      0.085873
     47 H20         7.9520   -3.7050   -0.5140 h1        1 MOL      0.031448
     48 H21         8.1300   -3.2880    1.9280 hc        1 MOL      0.062026
     49 H22         6.6870   -2.2910    1.7770 hc        1 MOL      0.062026
     50 N4          5.0180   -4.7460    1.1750 n         1 MOL     -0.589050
     51 C17         4.0850   -3.6880    1.6110 c3        1 MOL      0.059168
     52 C18         4.2980   -3.2330    3.0640 c         1 MOL      0.463326
     53 O9          5.1220   -3.6630    3.8000 o         1 MOL     -0.537462
     54 H23         4.6950   -5.6850    1.3500 hn        1 MOL      0.308873
     55 H24         3.0570   -4.0120    1.4860 h1        1 MOL      0.076102
     56 H25         4.2610   -2.8640    0.9250 h1        1 MOL      0.076102
     57 N5          3.4830   -2.2720    3.5090 n         1 MOL     -0.347313
     58 C19         2.2320   -1.7280    2.8590 c3        1 MOL      0.151480
     59 C20         2.3830   -1.1040    1.4880 c         1 MOL      0.043971
     60 O10         3.4370   -0.5880    1.1300 o         1 MOL     -0.492301
     61 C21         1.6300   -0.7170    3.8430 c3        1 MOL     -0.297394
     62 C22         2.6710    0.4200    4.1220 c         1 MOL      0.746736
     63 O11         3.3330    0.6130    5.1820 o         1 MOL     -0.677455
     64 O12         2.8140    1.2750    3.1850 o         1 MOL     -0.677455
     65 H26         3.6700   -2.0070    4.4630 hn        1 MOL      0.280933
     66 H27         1.6140   -2.6180    2.6970 h1        1 MOL      0.005835
     67 H28         1.5650   -1.2900    4.7680 hc        1 MOL      0.061215
     68 H29         0.6740   -0.3080    3.5030 hc        1 MOL      0.061215
     69 N6          1.4150   -0.9500    0.6360 n         1 MOL     -0.090328
     70 C23        -0.0500   -1.2940    0.7790 c3        1 MOL     -0.090284
     71 C24        -0.3880   -2.6860    0.2980 c         1 MOL      0.652462
     72 O13         0.3460   -3.3180   -0.4690 o         1 MOL     -0.587042
     73 H30         1.6870   -0.5430   -0.2440 hn        1 MOL      0.281488
     74 H31        -0.6690   -0.5890    0.2350 h1        1 MOL      0.086894
     75 H32        -0.2450   -1.4290    1.8490 h1        1 MOL      0.086894
     76 N7         -1.6620   -3.1020    0.5840 n         1 MOL     -0.440666
     77 C25        -2.3030   -4.3570    0.1160 c3        1 MOL     -0.071498
     78 C26        -3.1550   -4.2010   -1.1050 c         1 MOL      0.448516
     79 O14        -3.6730   -5.1590   -1.6100 o         1 MOL     -0.518444
     80 C27        -2.9330   -5.1860    1.2400 c3        1 MOL     -0.070537
     81 C28        -3.9870   -4.4310    2.0180 c3        1 MOL     -0.159945
     82 C29        -5.1850   -4.0340    1.1230 c         1 MOL      0.606019
     83 N8         -6.0350   -4.9760    0.6490 n         1 MOL     -0.795891
     84 O15        -5.3360   -2.8670    0.7680 o         1 MOL     -0.542888
     85 H33        -2.2780   -2.5050    1.1130 hn        1 MOL      0.256309
     86 H34        -1.4320   -4.9610   -0.1340 h1        1 MOL      0.143189
     87 H35        -2.1240   -5.4210    1.9420 hc        1 MOL      0.052796
     88 H36        -3.2970   -6.1580    0.9250 hc        1 MOL      0.052796
     89 H37        -3.5240   -3.5060    2.3640 hc        1 MOL      0.068838
     90 H38        -4.3520   -5.0030    2.8770 hc        1 MOL      0.068838
     91 H39        -5.9270   -5.9370    0.9550 hn        1 MOL      0.368722
     92 H40        -6.6970   -4.7030   -0.0610 hn        1 MOL      0.368722
     93 N9         -3.2900   -2.9360   -1.5610 n         1 MOL     -0.169193
     94 C30        -3.7190   -2.6770   -2.9080 c3        1 MOL     -0.135113
     95 C31        -5.0650   -1.9190   -3.0260 c         1 MOL      0.388459
     96 O16        -5.3590   -1.4470   -4.0930 o         1 MOL     -0.549393
     97 C32        -2.6070   -1.8940   -3.7300 c3        1 MOL      0.187228
     98 C33        -1.2580   -2.6320   -3.8550 c3        1 MOL     -0.196154
     99 C34        -2.4160   -0.4970   -3.1570 c3        1 MOL     -0.196154
    100 H41        -2.9420   -2.2080   -0.9540 hn        1 MOL      0.166777
    101 H42        -3.8610   -3.6060   -3.4550 h1        1 MOL      0.125920
    102 H43        -2.9510   -1.7050   -4.7420 hc        1 MOL      0.020582
    103 H44        -0.8200   -2.3550   -4.8060 hc        1 MOL      0.047189
    104 H45        -0.6430   -2.1820   -3.0660 hc        1 MOL      0.047189
    105 H46        -1.4130   -3.6930   -3.6760 hc        1 MOL      0.047189
    106 H47        -2.0550   -0.4060   -2.1350 hc        1 MOL      0.047189
    107 H48        -1.8090    0.0540   -3.8790 hc        1 MOL      0.047189
    108 H49        -3.3890   -0.0000   -3.0690 hc        1 MOL      0.047189
    109 N10        -5.8750   -1.6290   -1.9840 n         1 MOL     -0.158406
    110 C35        -7.2320   -1.0590   -2.0520 c3        1 MOL     -0.008876
    111 C36        -7.3960    0.3140   -1.4000 c         1 MOL      0.441300
    112 O17        -8.5500    0.7590   -1.4260 o         1 MOL     -0.535471
    113 C37        -8.2450   -2.0410   -1.4530 c3        1 MOL     -0.239656
    114 C38        -8.2590   -3.4540   -2.0160 c         1 MOL      0.622893
    115 N11        -8.6110   -3.5690   -3.2300 n         1 MOL     -0.666110
    116 O18        -8.0470   -4.4170   -1.3560 o         1 MOL     -0.539726
    117 H50        -5.6420   -2.0730   -1.1110 hn        1 MOL      0.235393
    118 H51        -7.4710   -0.8600   -3.0980 h1        1 MOL      0.083403
    119 H52        -9.2940   -1.7820   -1.5700 hc        1 MOL      0.076423
    120 H53        -7.9790   -2.2040   -0.4080 hc        1 MOL      0.076423
    121 H54        -9.1010   -2.8040   -3.6700 hn        1 MOL      0.323970
    122 H55        -8.7580   -4.4670   -3.6680 hn        1 MOL      0.323970
    123 N12        -6.3610    0.7820   -0.7220 n         1 MOL     -0.241047
    124 C39        -6.3690    2.0730   -0.0790 c3        1 MOL      0.021070
    125 C40        -4.9650    2.7300    0.2130 c         1 MOL      0.343113
    126 O19        -4.0140    2.0540    0.6680 o         1 MOL     -0.392588
    127 C41        -7.0300    1.9680    1.3560 c3        1 MOL     -0.123019
    128 C42        -6.6760    0.9280    2.3960 ca        1 MOL     -0.007456
    129 C43        -5.6490    1.1080    3.3450 ca        1 MOL     -0.023009
    130 C44        -7.3380   -0.2990    2.3100 ca        1 MOL     -0.023009
    131 C45        -5.2960   -0.0110    4.1410 ca        1 MOL     -0.408768
    132 C46        -7.0210   -1.4180    3.1410 ca        1 MOL     -0.408768
    133 C47        -5.9190   -1.3010    3.9680 ca        1 MOL      0.443489
    134 O20        -5.4250   -2.3480    4.6760 oh        1 MOL     -0.557456
    135 H56        -5.5210    0.2220   -0.7020 hn        1 MOL      0.171683
    136 H57        -6.8300    2.7970   -0.7480 h1        1 MOL      0.055236
    137 H58        -8.1140    1.8620    1.2410 hc        1 MOL      0.054404
    138 H59        -6.9640    2.9300    1.8520 hc        1 MOL      0.054404
    139 H60        -5.1130    2.0420    3.4210 ha        1 MOL      0.114930
    140 H61        -8.0690   -0.4440    1.5250 ha        1 MOL      0.114930
    141 H62        -4.5300    0.1460    4.8910 ha        1 MOL      0.181393
    142 H63        -7.3930   -2.4050    2.9050 ha        1 MOL      0.181393
    143 H64        -4.7780   -1.8580    5.1810 ho        1 MOL      0.390241
    144 N13        -4.9700    4.0970    0.1490 n         1 MOL     -0.468416
    145 C48        -3.9140    4.9750    0.6230 c3        1 MOL      0.014947
    146 C49        -2.6350    5.1250   -0.1710 c         1 MOL      0.332978
    147 O21        -1.9030    6.1290   -0.0080 o         1 MOL     -0.497484
    148 C50        -3.5250    4.6470    2.0890 c3        1 MOL      0.232265
    149 C51        -4.6810    4.9420    3.0580 c3        1 MOL     -0.267360
    150 C52        -4.3090    4.5380    4.4940 c         1 MOL      0.709048
    151 O22        -5.2320    3.9050    5.1780 o         1 MOL     -0.711433
    152 O23        -3.2160    4.8720    4.9880 o         1 MOL     -0.711433
    153 H65        -5.7570    4.4900   -0.3310 hn        1 MOL      0.307341
    154 H66        -4.2920    5.9930    0.5980 h1        1 MOL      0.064101
    155 H67        -2.6540    5.2680    2.3170 hc        1 MOL      0.022652
    156 H68        -3.0760    3.6560    2.1290 hc        1 MOL      0.022652
    157 H69        -5.5690    4.4060    2.6940 hc        1 MOL      0.017603
    158 H70        -4.8310    6.0180    2.9520 hc        1 MOL      0.017603
    159 N14        -2.2880    4.1950   -1.0890 n         1 MOL     -0.255995
    160 C53        -1.0590    4.3890   -1.9790 c3        1 MOL     -0.210613
    161 C54        -1.1610    5.2220   -3.2870 c         1 MOL      0.506477
    162 O24        -0.1100    5.6470   -3.7760 o         1 MOL     -0.518266
    163 C55        -0.4870    3.0090   -2.1630 c3        1 MOL      0.059483
    164 C56        -0.2420    2.2060   -0.8670 c3        1 MOL      0.379904
    165 C57         1.0020    2.7160   -0.1310 c         1 MOL      0.474385
    166 O25         0.8680    3.6480    0.6610 o         1 MOL     -0.602815
    167 O26         2.1030    2.1080   -0.2860 o         1 MOL     -0.602815
    168 H71        -2.8370    3.3650   -1.2680 hn        1 MOL      0.232411
    169 H72        -0.2620    4.8800   -1.4210 h1        1 MOL      0.194638
    170 H73         0.3990    3.0110   -2.8000 hc        1 MOL     -0.030115
    171 H74        -1.2610    2.5760   -2.8010 hc        1 MOL     -0.030115
    172 H75         0.0110    1.1970   -1.1880 hc        1 MOL     -0.152055
    173 H76        -1.1430    2.1310   -0.2440 hc        1 MOL     -0.152055
    174 N15        -2.4230    5.3290   -3.8080 n         1 MOL     -0.236440
    175 C58        -2.8580    6.0740   -4.9700 c3        1 MOL     -0.204252
    176 H77        -3.2770    7.0280   -4.6520 h1        1 MOL      0.089003
    177 H78        -2.0080    6.2520   -5.6280 h1        1 MOL      0.089003
    178 H79        -3.6180    5.5030   -5.5040 h1        1 MOL      0.089003
    179 H80        -3.1400    4.9880   -3.1910 hn        1 MOL      0.199783
    180 Ca1         4.3080    1.7280    1.0490 Ca        1 MOL      1.726015
    181 O27         6.0740    0.2300    2.4710 oh        1 MOL     -0.954038
    182 H81         6.7540   -0.0910    1.8870 ho        1 MOL      0.435966
    183 H82         6.2650   -0.1990    3.3140 ho        1 MOL      0.435966
    184 O28         3.2880    4.2330    1.7240 oh        1 MOL     -0.954038
    185 H83         2.3970    4.2970    1.3870 ho        1 MOL      0.435966
    186 H84         3.2820    4.7760    2.5140 ho        1 MOL      0.435966
@<TRIPOS>BOND
     1    1    2 1   
     2    1    4 1   
     3    1    5 1   
     4    1    6 1   
     5    2    3 2   
     6    2    7 1   
     7    7    8 1   
     8    7   15 1   
     9    8    9 1   
    10    8   11 1   
    11    8   16 1   
    12    9   10 2   
    13    9   19 1   
    14   11   12 1   
    15   11   17 1   
    16   11   18 1   
    17   12   13 1   
    18   12   14 1   
    19   19   20 1   
    20   19   27 1   
    21   20   21 1   
    22   20   23 1   
    23   20   28 1   
    24   21   22 2   
    25   21   38 1   
    26   23   24 1   
    27   23   25 1   
    28   23   29 1   
    29   24   26 1   
    30   24   30 1   
    31   24   31 1   
    32   25   32 1   
    33   25   33 1   
    34   25   34 1   
    35   26   35 1   
    36   26   36 1   
    37   26   37 1   
    38   38   39 1   
    39   38   46 1   
    40   39   40 1   
    41   39   42 1   
    42   39   47 1   
    43   40   41 2   
    44   40   50 1   
    45   42   43 1   
    46   42   48 1   
    47   42   49 1   
    48   43   44 1   
    49   43   45 1   
    50   50   51 1   
    51   50   54 1   
    52   51   52 1   
    53   51   55 1   
    54   51   56 1   
    55   52   53 2   
    56   52   57 1   
    57   57   58 1   
    58   57   65 1   
    59   58   59 1   
    60   58   61 1   
    61   58   66 1   
    62   59   60 2   
    63   59   69 1   
    64   61   62 1   
    65   61   67 1   
    66   61   68 1   
    67   62   63 1   
    68   62   64 1   
    69   69   70 1   
    70   69   73 1   
    71   70   71 1   
    72   70   74 1   
    73   70   75 1   
    74   71   72 2   
    75   71   76 1   
    76   76   77 1   
    77   76   85 1   
    78   77   78 1   
    79   77   80 1   
    80   77   86 1   
    81   78   79 2   
    82   78   93 1   
    83   80   81 1   
    84   80   87 1   
    85   80   88 1   
    86   81   82 1   
    87   81   89 1   
    88   81   90 1   
    89   82   83 1   
    90   82   84 2   
    91   83   91 1   
    92   83   92 1   
    93   93   94 1   
    94   93  100 1   
    95   94   95 1   
    96   94   97 1   
    97   94  101 1   
    98   95   96 2   
    99   95  109 1   
   100   97   98 1   
   101   97   99 1   
   102   97  102 1   
   103   98  103 1   
   104   98  104 1   
   105   98  105 1   
   106   99  106 1   
   107   99  107 1   
   108   99  108 1   
   109  109  110 1   
   110  109  117 1   
   111  110  111 1   
   112  110  113 1   
   113  110  118 1   
   114  111  112 2   
   115  111  123 1   
   116  113  114 1   
   117  113  119 1   
   118  113  120 1   
   119  114  115 1   
   120  114  116 2   
   121  115  121 1   
   122  115  122 1   
   123  123  124 1   
   124  123  135 1   
   125  124  125 1   
   126  124  127 1   
   127  124  136 1   
   128  125  126 2   
   129  125  144 1   
   130  127  128 1   
   131  127  137 1   
   132  127  138 1   
   133  128  129 ar  
   134  128  130 ar  
   135  129  131 ar  
   136  129  139 1   
   137  130  132 ar  
   138  130  140 1   
   139  131  133 ar  
   140  131  141 1   
   141  132  133 ar  
   142  132  142 1   
   143  133  134 1   
   144  134  143 1   
   145  144  145 1   
   146  144  153 1   
   147  145  146 1   
   148  145  148 1   
   149  145  154 1   
   150  146  147 2   
   151  146  159 1   
   152  148  149 1   
   153  148  155 1   
   154  148  156 1   
   155  149  150 1   
   156  149  157 1   
   157  149  158 1   
   158  150  151 1   
   159  150  152 1   
   160  159  160 1   
   161  159  168 1   
   162  160  161 1   
   163  160  163 1   
   164  160  169 1   
   165  161  162 2   
   166  161  174 1   
   167  163  164 1   
   168  163  170 1   
   169  163  171 1   
   170  164  165 1   
   171  164  172 1   
   172  164  173 1   
   173  165  166 1   
   174  165  167 1   
   175  174  175 1   
   176  174  179 1   
   177  175  176 1   
   178  175  177 1   
   179  175  178 1   
   180  181  182 1   
   181  181  183 1   
   182  184  185 1   
   183  184  186 1   
@<TRIPOS>SUBSTRUCTURE
     1 MOL         1 TEMP              0 ****  ****    0 ROOT
