@<TRIPOS>MOLECULE
MOL
  186   183     1     0     0
SMALL
resp


@<TRIPOS>ATOM
      1 C1         12.0020    4.6750   -3.4650 c3        1 MOL     -0.453767
      2 C2         11.6930    3.5030   -2.4420 c         1 MOL      0.786824
      3 O1         11.8780    2.2530   -2.6350 o         1 MOL     -0.613708
      4 H1         11.0670    5.1390   -3.7780 hc        1 MOL      0.121666
      5 H2         12.6340    5.4210   -2.9840 hc        1 MOL      0.121666
      6 H3         12.5150    4.2700   -4.3380 hc        1 MOL      0.121666
      7 N1         11.1340    3.9320   -1.2840 n         1 MOL     -0.472421
      8 C3         10.6880    2.9690   -0.2030 c3        1 MOL     -0.335867
      9 C4          9.3650    2.2850   -0.4040 c         1 MOL      0.662228
     10 O2          8.3660    2.8880   -0.8340 o         1 MOL     -0.713537
     11 C5         10.7830    3.5900    1.2310 c3        1 MOL     -0.241330
     12 C6         10.0050    4.9130    1.4880 c         1 MOL      0.805346
     13 O3         10.4030    5.6340    2.4050 o         1 MOL     -0.710679
     14 O4          9.1120    5.2610    0.7040 o         1 MOL     -0.710679
     15 H4         11.1970    4.9070   -1.0350 hn        1 MOL      0.301076
     16 H5         11.3190    2.0790   -0.1900 h1        1 MOL      0.151153
     17 H6         11.8310    3.7850    1.4420 hc        1 MOL      0.094700
     18 H7         10.4100    2.8570    1.9560 hc        1 MOL      0.094700
     19 N2          9.3850    1.0210   -0.1650 n         1 MOL     -0.217512
     20 C7          8.3680    0.0250   -0.5260 c3        1 MOL     -0.097682
     21 C8          7.0860    0.3320    0.2740 c         1 MOL      0.529713
     22 O5          7.2480    0.7180    1.3790 o         1 MOL     -0.565619
     23 C9          8.8200   -1.4510   -0.3060 c3        1 MOL     -0.222418
     24 C10        10.0890   -1.9410   -1.1400 c3        1 MOL     -0.084636
     25 C11        10.3530   -3.4660   -1.0230 c3        1 MOL     -0.096919
     26 C12        10.7420   -3.9200    0.4100 c3        1 MOL      0.081987
     27 N3         11.0030   -5.3780    0.4720 n4        1 MOL     -0.220507
     28 H8         10.2780    0.6880    0.2010 hn        1 MOL      0.257317
     29 H9          8.0670    0.0910   -1.5730 h1        1 MOL      0.127084
     30 H10         8.0330   -2.0760   -0.7200 hc        1 MOL      0.113087
     31 H11         8.8090   -1.7840    0.7340 hc        1 MOL      0.113087
     32 H12        10.8480   -1.3200   -0.6780 hc        1 MOL      0.072130
     33 H13         9.9630   -1.7310   -2.2030 hc        1 MOL      0.072130
     34 H14        11.1560   -3.7500   -1.7070 hc        1 MOL      0.068919
     35 H15         9.4790   -4.0630   -1.2530 hc        1 MOL      0.068919
     36 H16         9.8910   -3.8100    1.0780 hx        1 MOL      0.060275
     37 H17        11.5980   -3.4150    0.8630 hx        1 MOL      0.060275
     38 H18        10.1300   -5.8950    0.4790 hn        1 MOL      0.225338
     39 H19        11.5150   -5.8150   -0.2920 hn        1 MOL      0.225338
     40 H20        11.4470   -5.5440    1.3580 hn        1 MOL      0.225338
     41 N4          5.9070    0.2740   -0.2780 n         1 MOL     -0.395700
     42 C13         4.5690    0.1920    0.2700 c3        1 MOL      0.039210
     43 C14         3.9080   -1.1460   -0.1710 c         1 MOL      0.583664
     44 O6          4.4890   -1.8990   -0.9600 o         1 MOL     -0.593228
     45 C15         3.6830    1.4070   -0.0820 c3        1 MOL      0.012645
     46 C16         4.4170    2.7400   -0.1250 c         1 MOL      0.686797
     47 O7          4.6340    3.2300   -1.2270 o         1 MOL     -0.776611
     48 O8          4.8910    3.2490    0.9400 o         1 MOL     -0.776611
     49 H21         5.9320    0.1580   -1.2880 hn        1 MOL      0.242637
     50 H22         4.6430    0.2830    1.3510 h1        1 MOL      0.104191
     51 H23         2.8300    1.4440    0.5900 hc        1 MOL      0.030879
     52 H24         3.1820    1.2050   -1.0270 hc        1 MOL      0.030879
     53 N5          2.7010   -1.4780    0.3100 n         1 MOL     -0.325964
     54 C17         2.1030   -1.1080    1.6120 c3        1 MOL     -0.449636
     55 C18         1.6190   -2.3710    2.2970 c         1 MOL      0.639816
     56 O9          2.0320   -3.4860    1.9500 o         1 MOL     -0.518881
     57 H25         2.2520   -2.2980   -0.0810 hn        1 MOL      0.247943
     58 H26         1.3320   -0.3290    1.5830 h1        1 MOL      0.167423
     59 H27         2.9750   -0.6830    2.0920 h1        1 MOL      0.167423
     60 N6          0.9110   -2.2910    3.3950 n         1 MOL     -0.304736
     61 C19         0.4230   -3.4020    4.1980 c3        1 MOL     -0.156483
     62 C20        -0.5170   -4.3810    3.4890 c         1 MOL      0.589751
     63 O10        -1.6510   -3.9770    3.0760 o         1 MOL     -0.528981
     64 C21        -0.2810   -2.7530    5.4640 c3        1 MOL     -0.151564
     65 C22        -0.6810   -3.7230    6.5990 c         1 MOL      0.725636
     66 O11        -0.4750   -4.9490    6.4220 o         1 MOL     -0.667573
     67 O12        -1.3170   -3.2650    7.5090 o         1 MOL     -0.667573
     68 H28         0.5080   -1.3950    3.6510 hn        1 MOL      0.246186
     69 H29         1.2960   -3.9590    4.5340 h1        1 MOL      0.080138
     70 H30        -1.1560   -2.1500    5.2500 hc        1 MOL      0.054920
     71 H31         0.4730   -2.0870    5.8910 hc        1 MOL      0.054920
     72 N7         -0.0580   -5.6350    3.2980 n         1 MOL     -0.352637
     73 C23        -0.7570   -6.6080    2.3970 c3        1 MOL     -0.158116
     74 C24        -0.3740   -6.4020    0.9240 c         1 MOL      0.507254
     75 O13        -0.7120   -7.2250    0.1380 o         1 MOL     -0.560526
     76 H32         0.7870   -5.8770    3.7980 hn        1 MOL      0.274951
     77 H33        -1.8430   -6.6180    2.5010 h1        1 MOL      0.128360
     78 H34        -0.4170   -7.5810    2.7370 h1        1 MOL      0.128360
     79 N8          0.1940   -5.2250    0.5280 n         1 MOL     -0.062063
     80 C25         0.2080   -4.6930   -0.8740 c3        1 MOL      0.047777
     81 C26        -0.2300   -3.2180   -0.9730 c         1 MOL      0.445655
     82 O14        -0.2130   -2.5030    0.0240 o         1 MOL     -0.421789
     83 C27         1.6730   -4.8800   -1.4910 c3        1 MOL      0.297715
     84 C28         2.4880   -6.1050   -0.9400 c3        1 MOL     -0.355990
     85 O15         1.5490   -5.1560   -2.9090 oh        1 MOL     -0.652359
     86 H35         0.3250   -4.5090    1.2220 hn        1 MOL     -0.079859
     87 H36        -0.4270   -5.3350   -1.4830 h1        1 MOL      0.070890
     88 H37         2.2570   -3.9740   -1.3260 h1        1 MOL      0.003291
     89 H38         2.4550   -5.2420   -3.2170 ho        1 MOL      0.401195
     90 H39         2.8880   -5.7550    0.0150 hc        1 MOL      0.091322
     91 H40         1.8940   -6.9980   -0.7360 hc        1 MOL      0.091322
     92 H41         3.3300   -6.3290   -1.5980 hc        1 MOL      0.091322
     93 N9         -0.6090   -2.6970   -2.1690 n         1 MOL     -0.391228
     94 C29        -1.2700   -1.3960   -2.3560 c3        1 MOL     -0.191369
     95 C30        -2.7620   -1.3450   -1.9590 c         1 MOL      0.670034
     96 O16        -3.2830   -0.3110   -1.6170 o         1 MOL     -0.541677
     97 C31        -0.9200   -0.7740   -3.7480 c3        1 MOL      0.326867
     98 C32         0.4970   -0.9920   -4.2840 c3        1 MOL     -0.061903
     99 C33        -1.1920    0.7240   -3.8810 c3        1 MOL     -0.310848
    100 C34         1.6270   -0.3780   -3.4350 c3        1 MOL     -0.250987
    101 H42        -0.5140   -3.2790   -2.9880 hn        1 MOL      0.281684
    102 H43        -0.8450   -0.6700   -1.6570 h1        1 MOL      0.117441
    103 H44        -1.4960   -1.2560   -4.5370 hc        1 MOL     -0.050862
    104 H45         0.5110   -0.6500   -5.3230 hc        1 MOL      0.019589
    105 H46         0.6530   -2.0720   -4.3330 hc        1 MOL      0.019589
    106 H47        -0.8930    1.2350   -2.9650 hc        1 MOL      0.077241
    107 H48        -0.7840    1.1100   -4.8130 hc        1 MOL      0.077241
    108 H49        -2.2710    0.8360   -3.9430 hc        1 MOL      0.077241
    109 H50         2.5820   -0.5860   -3.9260 hc        1 MOL      0.072427
    110 H51         1.5280    0.6970   -3.2610 hc        1 MOL      0.072427
    111 H52         1.6790   -0.7520   -2.4050 hc        1 MOL      0.072427
    112 N10        -3.4270   -2.5200   -1.9470 n         1 MOL     -0.540039
    113 C35        -4.8270   -2.6500   -1.6690 c3        1 MOL      0.077267
    114 C36        -5.8080   -2.0380   -2.6940 c         1 MOL      0.548046
    115 O17        -5.4910   -2.1570   -3.8350 o         1 MOL     -0.510307
    116 C37        -5.2370   -3.9670   -1.0220 c3        1 MOL      0.499193
    117 C38        -4.4880   -4.4550    0.2570 c3        1 MOL     -0.416936
    118 O18        -6.5930   -4.0820   -0.8670 oh        1 MOL     -0.669721
    119 H53        -2.9070   -3.2980   -2.3380 hn        1 MOL      0.254248
    120 H54        -5.0480   -2.0290   -0.8020 h1        1 MOL      0.032436
    121 H55        -5.0650   -4.7130   -1.7970 h1        1 MOL     -0.075969
    122 H56        -6.8660   -4.4280   -1.7110 ho        1 MOL      0.388015
    123 H57        -4.4200   -3.5440    0.8530 hc        1 MOL      0.132094
    124 H58        -4.9550   -5.1950    0.9100 hc        1 MOL      0.132094
    125 H59        -3.4980   -4.8230   -0.0230 hc        1 MOL      0.132094
    126 N11        -7.0020   -1.5580   -2.2930 n         1 MOL     -0.433731
    127 C39        -8.0360   -1.0310   -3.1840 c3        1 MOL     -0.141705
    128 C40        -8.7780    0.1910   -2.6700 c         1 MOL      0.518441
    129 O19        -9.7590    0.6380   -3.2320 o         1 MOL     -0.526617
    130 C41        -9.1120   -2.1690   -3.4910 c3        1 MOL      0.344957
    131 C42       -10.0210   -2.3990   -2.2780 c3        1 MOL     -0.220514
    132 O20        -8.4550   -3.3220   -3.9810 oh        1 MOL     -0.610013
    133 H60        -7.2220   -1.5660   -1.3110 hn        1 MOL      0.311464
    134 H61        -7.5280   -0.8660   -4.1350 h1        1 MOL      0.161490
    135 H62        -9.7520   -1.7560   -4.2720 h1        1 MOL     -0.003327
    136 H63        -9.0430   -3.9720   -4.3650 ho        1 MOL      0.402288
    137 H64        -9.5400   -2.4340   -1.2990 hc        1 MOL      0.053901
    138 H65       -10.7630   -1.5980   -2.2960 hc        1 MOL      0.053901
    139 H66       -10.6610   -3.2790   -2.3890 hc        1 MOL      0.053901
    140 N12        -8.2850    0.8590   -1.5560 n         1 MOL     -0.263135
    141 C43        -8.7770    2.1180   -0.9130 c3        1 MOL     -0.070582
    142 C44        -7.7040    2.7920   -0.0380 c         1 MOL      0.552537
    143 O21        -6.8620    2.1510    0.6260 o         1 MOL     -0.465043
    144 C45       -10.0700    1.8660   -0.0470 c3        1 MOL     -0.199019
    145 C46        -9.9580    0.7460    0.9860 c3        1 MOL      0.058425
    146 C47       -10.7700    1.0200    2.2310 c3        1 MOL     -0.081197
    147 C48       -12.3390    1.1050    2.1180 c3        1 MOL      0.127110
    148 N13       -12.9810    1.3710    3.4620 n4        1 MOL     -0.361072
    149 H67        -7.5610    0.3330   -1.0900 hn        1 MOL      0.132734
    150 H68        -8.9680    2.8490   -1.7020 h1        1 MOL      0.112597
    151 H69       -10.8900    1.5170   -0.6760 hc        1 MOL      0.078572
    152 H70       -10.2770    2.8210    0.4410 hc        1 MOL      0.078572
    153 H71        -8.9210    0.6930    1.3380 hc        1 MOL      0.032806
    154 H72       -10.1620   -0.2240    0.5330 hc        1 MOL      0.032806
    155 H73       -10.5420    2.0070    2.6290 hc        1 MOL      0.050356
    156 H74       -10.5150    0.3010    3.0120 hc        1 MOL      0.050356
    157 H75       -12.7210    0.1820    1.6790 hx        1 MOL      0.042343
    158 H76       -12.5540    1.9520    1.4650 hx        1 MOL      0.042343
    159 H77       -12.9170    0.6150    4.1330 hn        1 MOL      0.301178
    160 H78       -12.6070    2.2150    3.8690 hn        1 MOL      0.301178
    161 H79       -13.9260    1.5810    3.1520 hn        1 MOL      0.301178
    162 N14        -7.7710    4.1170    0.0040 n         1 MOL     -0.477883
    163 C49        -7.0150    4.9440    0.9060 c3        1 MOL      0.119340
    164 C50        -5.4680    4.7160    0.8850 c         1 MOL      0.346684
    165 O22        -4.8940    4.5940    1.9180 o         1 MOL     -0.500549
    166 C51        -7.5310    6.3280    0.6410 c3        1 MOL      0.116072
    167 C52        -7.0120    7.3080    1.6900 c3        1 MOL     -0.294223
    168 C53        -7.9180    8.5150    1.7620 c         1 MOL      0.715900
    169 O23        -8.1300    9.0910    0.6760 o         1 MOL     -0.662040
    170 O24        -8.5170    8.8040    2.8270 o         1 MOL     -0.662040
    171 H80        -8.4790    4.5800   -0.5470 hn        1 MOL      0.249131
    172 H81        -7.2790    4.7470    1.9420 h1        1 MOL      0.052580
    173 H82        -8.6230    6.3670    0.6470 hc        1 MOL      0.005519
    174 H83        -7.2450    6.6430   -0.3610 hc        1 MOL      0.005519
    175 H84        -5.9500    7.4780    1.5250 hc        1 MOL      0.064080
    176 H85        -7.2250    6.7640    2.6130 hc        1 MOL      0.064080
    177 N15        -4.7210    4.7290   -0.2290 n         1 MOL     -0.248131
    178 C54        -5.1790    5.0550   -1.6080 c3        1 MOL     -0.106427
    179 H86        -5.9270    5.8480   -1.5640 h1        1 MOL      0.062145
    180 H87        -4.3300    5.3900   -2.2030 h1        1 MOL      0.062145
    181 H88        -5.6180    4.1680   -2.0650 h1        1 MOL      0.062145
    182 H89        -3.7230    4.6820   -0.1080 hn        1 MOL      0.269471
    183 Ca1         6.7440    4.7780   -0.1780 Ca        1 MOL      1.737299
    184 O25         6.7520    4.9220    2.6530 oh        1 MOL     -0.918823
    185 H90         6.1370    4.2990    3.0280 ho        1 MOL      0.459200
    186 H91         7.5990    4.6770    3.0180 ho        1 MOL      0.459200
@<TRIPOS>BOND
     1    1    2 1   
     2    1    4 1   
     3    1    5 1   
     4    1    6 1   
     5    2    3 2   
     6    2    7 1   
     7    7    8 1   
     8    7   15 1   
     9    8    9 1   
    10    8   11 1   
    11    8   16 1   
    12    9   10 2   
    13    9   19 1   
    14   11   12 1   
    15   11   17 1   
    16   11   18 1   
    17   12   13 1   
    18   12   14 1   
    19   19   20 1   
    20   19   28 1   
    21   20   21 1   
    22   20   23 1   
    23   20   29 1   
    24   21   22 2   
    25   21   41 1   
    26   23   24 1   
    27   23   30 1   
    28   23   31 1   
    29   24   25 1   
    30   24   32 1   
    31   24   33 1   
    32   25   26 1   
    33   25   34 1   
    34   25   35 1   
    35   26   27 1   
    36   26   36 1   
    37   26   37 1   
    38   27   38 1   
    39   27   39 1   
    40   27   40 1   
    41   41   42 1   
    42   41   49 1   
    43   42   43 1   
    44   42   45 1   
    45   42   50 1   
    46   43   44 2   
    47   43   53 1   
    48   45   46 1   
    49   45   51 1   
    50   45   52 1   
    51   46   47 1   
    52   46   48 1   
    53   53   54 1   
    54   53   57 1   
    55   54   55 1   
    56   54   58 1   
    57   54   59 1   
    58   55   56 2   
    59   55   60 1   
    60   60   61 1   
    61   60   68 1   
    62   61   62 1   
    63   61   64 1   
    64   61   69 1   
    65   62   63 2   
    66   62   72 1   
    67   64   65 1   
    68   64   70 1   
    69   64   71 1   
    70   65   66 1   
    71   65   67 1   
    72   72   73 1   
    73   72   76 1   
    74   73   74 1   
    75   73   77 1   
    76   73   78 1   
    77   74   75 2   
    78   74   79 1   
    79   79   80 1   
    80   79   86 1   
    81   80   81 1   
    82   80   83 1   
    83   80   87 1   
    84   81   82 2   
    85   81   93 1   
    86   83   84 1   
    87   83   85 1   
    88   83   88 1   
    89   84   90 1   
    90   84   91 1   
    91   84   92 1   
    92   85   89 1   
    93   93   94 1   
    94   93  101 1   
    95   94   95 1   
    96   94   97 1   
    97   94  102 1   
    98   95   96 2   
    99   95  112 1   
   100   97   98 1   
   101   97   99 1   
   102   97  103 1   
   103   98  100 1   
   104   98  104 1   
   105   98  105 1   
   106   99  106 1   
   107   99  107 1   
   108   99  108 1   
   109  100  109 1   
   110  100  110 1   
   111  100  111 1   
   112  112  113 1   
   113  112  119 1   
   114  113  114 1   
   115  113  116 1   
   116  113  120 1   
   117  114  115 2   
   118  114  126 1   
   119  116  117 1   
   120  116  118 1   
   121  116  121 1   
   122  117  123 1   
   123  117  124 1   
   124  117  125 1   
   125  118  122 1   
   126  126  127 1   
   127  126  133 1   
   128  127  128 1   
   129  127  130 1   
   130  127  134 1   
   131  128  129 2   
   132  128  140 1   
   133  130  131 1   
   134  130  132 1   
   135  130  135 1   
   136  131  137 1   
   137  131  138 1   
   138  131  139 1   
   139  132  136 1   
   140  140  141 1   
   141  140  149 1   
   142  141  142 1   
   143  141  144 1   
   144  141  150 1   
   145  142  143 2   
   146  142  162 1   
   147  144  145 1   
   148  144  151 1   
   149  144  152 1   
   150  145  146 1   
   151  145  153 1   
   152  145  154 1   
   153  146  147 1   
   154  146  155 1   
   155  146  156 1   
   156  147  148 1   
   157  147  157 1   
   158  147  158 1   
   159  148  159 1   
   160  148  160 1   
   161  148  161 1   
   162  162  163 1   
   163  162  171 1   
   164  163  164 1   
   165  163  166 1   
   166  163  172 1   
   167  164  165 2   
   168  164  177 1   
   169  166  167 1   
   170  166  173 1   
   171  166  174 1   
   172  167  168 1   
   173  167  175 1   
   174  167  176 1   
   175  168  169 1   
   176  168  170 1   
   177  177  178 1   
   178  177  182 1   
   179  178  179 1   
   180  178  180 1   
   181  178  181 1   
   182  184  185 1   
   183  184  186 1   
@<TRIPOS>SUBSTRUCTURE
     1 MOL         1 TEMP              0 ****  ****    0 ROOT
