@<TRIPOS>MOLECULE
MOL
  181   177     1     0     0
SMALL
resp


@<TRIPOS>ATOM
      1 C1         -2.5090   -6.7400   -2.5150 c3        1 MOL     -0.341882
      2 C2         -3.7600   -6.3850   -1.5920 c         1 MOL      0.661009
      3 O1         -3.7080   -6.6980   -0.3850 o         1 MOL     -0.581309
      4 H1         -2.8380   -7.3600   -3.3490 hc        1 MOL      0.083956
      5 H2         -2.0670   -5.8210   -2.8990 hc        1 MOL      0.083956
      6 H3         -1.7680   -7.2830   -1.9300 hc        1 MOL      0.083956
      7 N1         -4.8290   -5.7830   -2.1240 n         1 MOL     -0.560387
      8 C3         -6.1180   -5.6420   -1.4140 c3        1 MOL      0.163161
      9 C4         -5.9410   -4.5420   -0.3330 c         1 MOL      0.564936
     10 O2         -6.0740   -3.3750   -0.6600 o         1 MOL     -0.514471
     11 C5         -7.2230   -5.3290   -2.4260 c3        1 MOL     -0.244831
     12 C6         -8.6110   -5.1610   -1.9060 c         1 MOL      0.724866
     13 O3         -8.9820   -5.6290   -0.7500 o         1 MOL     -0.734400
     14 O4         -9.4650   -4.7350   -2.7490 o         1 MOL     -0.734400
     15 H4         -4.7330   -5.5000   -3.0880 hn        1 MOL      0.301338
     16 H5         -6.4890   -6.5740   -1.0050 h1        1 MOL      0.035830
     17 H6         -7.3200   -6.1610   -3.1290 hc        1 MOL      0.043950
     18 H7         -6.9230   -4.4590   -3.0070 hc        1 MOL      0.043950
     19 N2         -5.7500   -4.8310    0.9660 n         1 MOL     -0.696810
     20 C7         -5.4290   -3.8490    1.9600 c3        1 MOL      0.661107
     21 C8         -3.9590   -3.4880    2.0240 c         1 MOL      0.384386
     22 O5         -3.1280   -4.3200    1.6560 o         1 MOL     -0.536270
     23 C9         -5.9260   -4.4350    3.2950 c3        1 MOL     -0.423391
     24 H8         -5.4860   -5.7750    1.2020 hn        1 MOL      0.319640
     25 H9         -5.9550   -2.9190    1.7450 h1        1 MOL     -0.053262
     26 H10        -5.4730   -5.3970    3.5110 hc        1 MOL      0.096542
     27 H11        -5.5780   -3.8070    4.1240 hc        1 MOL      0.096542
     28 H12        -6.9990   -4.6070    3.2940 hc        1 MOL      0.096542
     29 N3         -3.5640   -2.2980    2.5030 n         1 MOL     -0.436536
     30 C10        -4.3250   -1.2100    3.0530 c3        1 MOL     -0.010920
     31 C11        -4.2530    0.0070    2.1420 c         1 MOL      0.567378
     32 O6         -3.3510    0.2560    1.3780 o         1 MOL     -0.532741
     33 C12        -3.7500   -0.7930    4.4150 c3        1 MOL     -0.085859
     34 C13        -2.3560   -0.3100    4.5330 c         1 MOL      0.659594
     35 O7         -1.5840   -0.5510    3.5670 o         1 MOL     -0.676754
     36 O8         -1.9820    0.2360    5.6020 o         1 MOL     -0.676754
     37 H13        -2.5920   -2.1170    2.3110 hn        1 MOL      0.287847
     38 H14        -5.3570   -1.4620    3.3060 h1        1 MOL      0.038055
     39 H15        -3.8240   -1.6810    5.0470 hc        1 MOL      0.015138
     40 H16        -4.3620   -0.0520    4.9190 hc        1 MOL      0.015138
     41 N4         -5.3780    0.7730    2.0780 n         1 MOL     -0.548148
     42 C14        -5.5040    2.0230    1.2970 c3        1 MOL      0.093661
     43 C15        -5.3490    1.6320   -0.1710 c         1 MOL      0.727021
     44 O9         -5.4830    0.4770   -0.5550 o         1 MOL     -0.511846
     45 H17        -6.2120    0.4940    2.5740 hn        1 MOL      0.332124
     46 H18        -4.6300    2.6590    1.4970 h1        1 MOL      0.002709
     47 H19        -6.5010    2.4560    1.4350 h1        1 MOL      0.002709
     48 N5         -5.2160    2.5830   -1.1030 n         1 MOL     -0.699735
     49 C16        -5.2880    4.0260   -0.7820 c3        1 MOL      0.294489
     50 C17        -4.1750    4.8220   -1.5160 c         1 MOL      0.628766
     51 O10        -3.3590    4.1410   -2.1200 o         1 MOL     -0.519382
     52 C18        -6.6850    4.4790   -1.3360 c3        1 MOL     -0.308366
     53 C19        -7.9470    3.7580   -0.9310 c         1 MOL      0.649328
     54 N6         -8.7660    4.3080   -0.0790 n         1 MOL     -0.741010
     55 O11        -8.2560    2.6340   -1.3570 o         1 MOL     -0.493301
     56 H20        -4.9160    2.2380   -1.9970 hn        1 MOL      0.341084
     57 H21        -5.2520    4.2160    0.2870 h1        1 MOL     -0.045152
     58 H22        -6.5410    4.3630   -2.4100 hc        1 MOL      0.062125
     59 H23        -6.7800    5.5670   -1.3140 hc        1 MOL      0.062125
     60 H24        -8.5180    5.2190    0.3060 hn        1 MOL      0.348181
     61 H25        -9.6750    3.9110    0.1050 hn        1 MOL      0.348181
     62 N7         -4.0540    6.1450   -1.4100 n         1 MOL     -0.601895
     63 C20        -3.1380    7.0560   -2.2080 c3        1 MOL     -0.054457
     64 C21        -1.6340    7.1480   -1.8460 c         1 MOL      0.438107
     65 O12        -1.1030    8.2210   -2.1370 o         1 MOL     -0.554767
     66 H26        -4.7920    6.5820   -0.8770 hn        1 MOL      0.327343
     67 H27        -3.5810    8.0490   -2.1590 h1        1 MOL      0.115218
     68 H28        -3.1820    6.8130   -3.2770 h1        1 MOL      0.115218
     69 N8         -1.0920    6.0680   -1.3310 n         1 MOL     -0.118523
     70 C22         0.3820    5.8770   -0.9710 c3        1 MOL     -0.166619
     71 C23         0.9690    4.5730   -1.4950 c         1 MOL      0.542671
     72 O13         0.2640    3.5960   -1.8720 o         1 MOL     -0.575317
     73 C24         0.5860    5.9520    0.5930 c3        1 MOL      0.438048
     74 C25         0.1130    7.3490    1.0300 c3        1 MOL     -0.460305
     75 O14        -0.0270    4.9640    1.3230 oh        1 MOL     -0.626109
     76 H29        -1.6900    5.2540   -1.3160 hn        1 MOL      0.101271
     77 H30         0.9170    6.6860   -1.4740 h1        1 MOL      0.101826
     78 H31         1.6480    5.7860    0.7710 h1        1 MOL      0.012664
     79 H32         0.4790    4.1580    1.4690 ho        1 MOL      0.400387
     80 H33         0.6660    8.0920    0.4500 hc        1 MOL      0.117920
     81 H34        -0.9690    7.2490    0.9290 hc        1 MOL      0.117920
     82 H35         0.2950    7.3930    2.1030 hc        1 MOL      0.117920
     83 N9          2.2740    4.5020   -1.4550 n         1 MOL     -0.461750
     84 C26         3.0780    3.2840   -1.5940 c3        1 MOL      0.067056
     85 C27         3.7490    3.2460   -0.2140 c         1 MOL      0.445057
     86 O15         4.4270    4.1990    0.1220 o         1 MOL     -0.604932
     87 C28         4.1210    3.2740   -2.7440 c3        1 MOL      0.226916
     88 C29         4.9170    1.8980   -2.6670 c3        1 MOL     -0.103744
     89 C30         3.4600    3.2440   -4.1420 c3        1 MOL     -0.360067
     90 C31         6.3920    2.0430   -2.1960 c3        1 MOL      0.012186
     91 H36         2.8380    5.3320   -1.4030 hn        1 MOL      0.268483
     92 H37         2.3930    2.4440   -1.6480 h1        1 MOL      0.182468
     93 H38         4.7260    4.1690   -2.6510 hc        1 MOL     -0.000905
     94 H39         5.0520    1.5380   -3.6860 hc        1 MOL     -0.003500
     95 H40         4.3360    1.0760   -2.2500 hc        1 MOL     -0.003500
     96 H41         2.7860    4.0950   -4.2670 hc        1 MOL      0.083066
     97 H42         4.2200    3.3090   -4.9220 hc        1 MOL      0.083066
     98 H43         2.8610    2.3440   -4.2410 hc        1 MOL      0.083066
     99 H44         6.9090    2.7220   -2.8760 hc        1 MOL     -0.008016
    100 H45         6.3550    2.5120   -1.2110 hc        1 MOL     -0.008016
    101 H46         7.0170    1.1620   -2.1140 hc        1 MOL     -0.008016
    102 N10         3.6210    2.2050    0.5990 n         1 MOL      0.117967
    103 C32         4.2630    2.0430    1.8840 c3        1 MOL     -0.044440
    104 C33         5.3320    0.9850    1.9080 c         1 MOL      0.375353
    105 O16         6.1400    0.8440    2.8380 o         1 MOL     -0.555108
    106 C34         3.1880    1.8150    2.9930 c3        1 MOL     -0.125319
    107 C35         1.9470    2.7390    2.9970 c         1 MOL      0.619215
    108 O17         0.9990    2.4380    2.2570 o         1 MOL     -0.639882
    109 O18         1.9230    3.7400    3.7200 o         1 MOL     -0.639882
    110 H47         2.8580    1.5820    0.3730 hn        1 MOL     -0.171313
    111 H48         4.7060    2.9920    2.1600 h1        1 MOL      0.094682
    112 H49         3.6120    1.8860    3.9990 hc        1 MOL      0.044947
    113 H50         2.7650    0.8530    2.7150 hc        1 MOL      0.044947
    114 N11         5.3610    0.0680    0.9590 n         1 MOL     -0.276763
    115 C36         6.3570   -1.0190    0.8490 c3        1 MOL      0.241307
    116 C37         5.7230   -2.3060    0.2320 c         1 MOL      0.279448
    117 O19         6.0070   -2.6460   -0.9290 o         1 MOL     -0.512080
    118 C38         7.5260   -0.5340    0.0580 c3        1 MOL     -0.146738
    119 C39         8.8210   -1.1480    0.3900 ca        1 MOL      0.040702
    120 C40         9.4040   -2.1130   -0.4910 ca        1 MOL     -0.092145
    121 C41         9.3600   -0.8460    1.5920 ca        1 MOL     -0.092145
    122 C42        10.5810   -2.7620   -0.0080 ca        1 MOL     -0.205938
    123 C43        10.4950   -1.5120    2.0300 ca        1 MOL     -0.205938
    124 C44        11.0350   -2.5250    1.3400 ca        1 MOL     -0.031120
    125 H51         4.6580    0.0330    0.2450 hn        1 MOL      0.244457
    126 H52         6.6150   -1.2980    1.8640 h1        1 MOL      0.015547
    127 H53         7.6390    0.5420    0.1560 hc        1 MOL      0.057816
    128 H54         7.4060   -0.6660   -1.0130 hc        1 MOL      0.057816
    129 H55         9.0360   -2.2970   -1.4810 ha        1 MOL      0.124301
    130 H56         8.9660   -0.0300    2.1800 ha        1 MOL      0.124301
    131 H57        10.9700   -3.6030   -0.5630 ha        1 MOL      0.113625
    132 H58        10.8930   -1.2230    2.9990 ha        1 MOL      0.113625
    133 H59        11.9370   -3.0080    1.6870 ha        1 MOL      0.073659
    134 N12         4.8170   -2.9880    0.9420 n         1 MOL     -0.047463
    135 C45         4.1870   -4.2580    0.4810 c3        1 MOL      0.031136
    136 C46         3.3530   -4.1780   -0.8370 c         1 MOL      0.187446
    137 O20         3.2800   -5.2470   -1.5240 o         1 MOL     -0.480713
    138 C47         3.3830   -4.7830    1.7290 c3        1 MOL      0.058326
    139 C48         3.7850   -3.8380    2.8870 c3        1 MOL     -0.276363
    140 C49         4.4500   -2.6210    2.3090 c3        1 MOL      0.026593
    141 H60         4.9890   -4.9900    0.3980 h1        1 MOL      0.074821
    142 H61         2.3300   -4.7530    1.4240 hc        1 MOL      0.030978
    143 H62         3.6140   -5.8080    2.0130 hc        1 MOL      0.030978
    144 H63         2.9620   -3.5010    3.5110 hc        1 MOL      0.084813
    145 H64         4.5700   -4.3450    3.4610 hc        1 MOL      0.084813
    146 H65         3.7480   -1.8020    2.3770 h1        1 MOL      0.064185
    147 H66         5.2620   -2.2930    2.9680 h1        1 MOL      0.064185
    148 N13         2.7970   -3.0490   -1.3090 n         1 MOL     -0.016457
    149 C50         2.4080   -2.8820   -2.7470 c3        1 MOL     -0.271495
    150 C51         3.3780   -3.3410   -3.7960 c         1 MOL      0.513841
    151 O21         3.0090   -3.9790   -4.8030 o         1 MOL     -0.547112
    152 C52         2.0580   -1.3640   -3.0030 c3        1 MOL      0.192277
    153 C53         1.1360   -0.6530   -1.9740 c3        1 MOL     -0.239405
    154 C54         1.7860   -0.1100   -0.7340 c         1 MOL      0.474798
    155 O22         1.1600    0.7630   -0.1360 o         1 MOL     -0.584562
    156 O23         2.8440   -0.5830   -0.2660 o         1 MOL     -0.584562
    157 H67         2.7680   -2.2260   -0.7130 hn        1 MOL      0.159421
    158 H68         1.5080   -3.4940   -2.8110 h1        1 MOL      0.130074
    159 H69         1.5450   -1.2630   -3.9580 hc        1 MOL     -0.022921
    160 H70         3.0380   -0.8770   -2.9060 hc        1 MOL     -0.022921
    161 H71         0.3250   -1.3320   -1.6800 hc        1 MOL      0.083898
    162 H72         0.7380    0.2220   -2.4910 hc        1 MOL      0.083898
    163 N14         4.6780   -3.0170   -3.7140 n         1 MOL     -0.160411
    164 C55         5.6330   -3.3050   -4.7500 c3        1 MOL     -0.325622
    165 H73         5.3820   -4.2560   -5.2200 h1        1 MOL      0.113436
    166 H74         5.6090   -2.5120   -5.4980 h1        1 MOL      0.113436
    167 H75         6.6320   -3.3670   -4.3170 h1        1 MOL      0.113436
    168 H76         5.0620   -2.5720   -2.9000 hn        1 MOL      0.250916
    169 Ca1        -0.8050    0.8190    1.4320 Ca        1 MOL      1.768459
    170 O24        -1.1790   -1.7470    0.3620 oh        1 MOL     -0.931917
    171 H77        -1.0520   -2.6070    0.7520 ho        1 MOL      0.454471
    172 H78        -1.8700   -1.8700   -0.2860 ho        1 MOL      0.454471
    173 O25        -2.0800    2.7950    2.6170 oh        1 MOL     -0.931917
    174 H79        -2.3870    3.0870    3.4650 ho        1 MOL      0.454471
    175 H80        -2.4250    3.4370    1.9950 ho        1 MOL      0.454471
    176 O26         0.9210   -1.0820    2.0500 oh        1 MOL     -0.931917
    177 H81         0.9040   -2.0330    2.1330 ho        1 MOL      0.454471
    178 H82         1.7050   -0.9040    1.5180 ho        1 MOL      0.454471
    179 O27        -1.8180    2.2200   -0.7790 oh        1 MOL     -0.931917
    180 H83        -1.1160    2.6370   -1.2740 ho        1 MOL      0.454471
    181 H84        -2.6010    2.3650   -1.3100 ho        1 MOL      0.454471
@<TRIPOS>BOND
     1    1    2 1   
     2    1    4 1   
     3    1    5 1   
     4    1    6 1   
     5    2    3 2   
     6    2    7 1   
     7    7    8 1   
     8    7   15 1   
     9    8    9 1   
    10    8   11 1   
    11    8   16 1   
    12    9   10 2   
    13    9   19 1   
    14   11   12 1   
    15   11   17 1   
    16   11   18 1   
    17   12   13 1   
    18   12   14 1   
    19   19   20 1   
    20   19   24 1   
    21   20   21 1   
    22   20   23 1   
    23   20   25 1   
    24   21   22 2   
    25   21   29 1   
    26   23   26 1   
    27   23   27 1   
    28   23   28 1   
    29   29   30 1   
    30   29   37 1   
    31   30   31 1   
    32   30   33 1   
    33   30   38 1   
    34   31   32 2   
    35   31   41 1   
    36   33   34 1   
    37   33   39 1   
    38   33   40 1   
    39   34   35 1   
    40   34   36 1   
    41   41   42 1   
    42   41   45 1   
    43   42   43 1   
    44   42   46 1   
    45   42   47 1   
    46   43   44 2   
    47   43   48 1   
    48   48   49 1   
    49   48   56 1   
    50   49   50 1   
    51   49   52 1   
    52   49   57 1   
    53   50   51 2   
    54   50   62 1   
    55   52   53 1   
    56   52   58 1   
    57   52   59 1   
    58   53   54 1   
    59   53   55 2   
    60   54   60 1   
    61   54   61 1   
    62   62   63 1   
    63   62   66 1   
    64   63   64 1   
    65   63   67 1   
    66   63   68 1   
    67   64   65 2   
    68   64   69 1   
    69   69   70 1   
    70   69   76 1   
    71   70   71 1   
    72   70   73 1   
    73   70   77 1   
    74   71   72 2   
    75   71   83 1   
    76   73   74 1   
    77   73   75 1   
    78   73   78 1   
    79   74   80 1   
    80   74   81 1   
    81   74   82 1   
    82   75   79 1   
    83   83   84 1   
    84   83   91 1   
    85   84   85 1   
    86   84   87 1   
    87   84   92 1   
    88   85   86 2   
    89   85  102 1   
    90   87   88 1   
    91   87   89 1   
    92   87   93 1   
    93   88   90 1   
    94   88   94 1   
    95   88   95 1   
    96   89   96 1   
    97   89   97 1   
    98   89   98 1   
    99   90   99 1   
   100   90  100 1   
   101   90  101 1   
   102  102  103 1   
   103  102  110 1   
   104  103  104 1   
   105  103  106 1   
   106  103  111 1   
   107  104  105 2   
   108  104  114 1   
   109  106  107 1   
   110  106  112 1   
   111  106  113 1   
   112  107  108 1   
   113  107  109 1   
   114  114  115 1   
   115  114  125 1   
   116  115  116 1   
   117  115  118 1   
   118  115  126 1   
   119  116  117 2   
   120  116  134 1   
   121  118  119 1   
   122  118  127 1   
   123  118  128 1   
   124  119  120 ar  
   125  119  121 ar  
   126  120  122 ar  
   127  120  129 1   
   128  121  123 ar  
   129  121  130 1   
   130  122  124 ar  
   131  122  131 1   
   132  123  124 ar  
   133  123  132 1   
   134  124  133 1   
   135  134  135 1   
   136  134  140 1   
   137  135  136 1   
   138  135  138 1   
   139  135  141 1   
   140  136  137 2   
   141  136  148 1   
   142  138  139 1   
   143  138  142 1   
   144  138  143 1   
   145  139  140 1   
   146  139  144 1   
   147  139  145 1   
   148  140  146 1   
   149  140  147 1   
   150  148  149 1   
   151  148  157 1   
   152  149  150 1   
   153  149  152 1   
   154  149  158 1   
   155  150  151 2   
   156  150  163 1   
   157  152  153 1   
   158  152  159 1   
   159  152  160 1   
   160  153  154 1   
   161  153  161 1   
   162  153  162 1   
   163  154  155 1   
   164  154  156 1   
   165  163  164 1   
   166  163  168 1   
   167  164  165 1   
   168  164  166 1   
   169  164  167 1   
   170  170  171 1   
   171  170  172 1   
   172  173  174 1   
   173  173  175 1   
   174  176  177 1   
   175  176  178 1   
   176  179  180 1   
   177  179  181 1   
@<TRIPOS>SUBSTRUCTURE
     1 MOL         1 TEMP              0 ****  ****    0 ROOT
