@<TRIPOS>MOLECULE
MOL
  181   177     1     0     0
SMALL
resp


@<TRIPOS>ATOM
      1 C1         10.7710   -6.7940    0.9290 c3        1 MOL     -0.309631
      2 C2          9.6740   -5.8500    0.3340 c         1 MOL      0.626642
      3 O1          8.6720   -6.3350   -0.2810 o         1 MOL     -0.595951
      4 H1         11.5930   -6.1940    1.3170 hc        1 MOL      0.073573
      5 H2         10.3420   -7.3870    1.7380 hc        1 MOL      0.073573
      6 H3         11.1420   -7.4580    0.1490 hc        1 MOL      0.073573
      7 N1          9.9040   -4.5610    0.1700 n         1 MOL     -0.495089
      8 C3         11.1150   -3.8130    0.5890 c3        1 MOL      0.259959
      9 C4         11.6730   -3.0930   -0.6470 c         1 MOL      0.433815
     10 O2         12.9040   -2.8500   -0.6460 o         1 MOL     -0.602259
     11 C5         10.7120   -2.9380    1.7380 c3        1 MOL     -0.211657
     12 C6          9.4040   -2.0790    1.7050 c         1 MOL      0.625794
     13 O3          9.4660   -0.9400    1.2690 o         1 MOL     -0.733809
     14 O4          8.3630   -2.5620    2.2530 o         1 MOL     -0.733809
     15 H4          9.1730   -3.9450   -0.1500 hn        1 MOL      0.350125
     16 H5         11.9130   -4.4880    0.8950 h1        1 MOL     -0.000657
     17 H6         11.5520   -2.2520    1.8780 hc        1 MOL      0.033416
     18 H7         10.6590   -3.6510    2.5630 hc        1 MOL      0.033416
     19 N2         10.9210   -2.7570   -1.6470 n         1 MOL     -0.343929
     20 C7         11.3240   -1.8880   -2.7710 c3        1 MOL      0.499106
     21 C8         10.2150   -0.9040   -3.2210 c         1 MOL      0.190500
     22 O5          9.9460   -0.6900   -4.4500 o         1 MOL     -0.496936
     23 C9         11.8790   -2.7800   -3.9340 c3        1 MOL     -0.386327
     24 H8          9.9490   -3.0490   -1.5990 hn        1 MOL      0.168382
     25 H9         12.2020   -1.3340   -2.4470 h1        1 MOL     -0.034421
     26 H10        12.1630   -2.2530   -4.8480 hc        1 MOL      0.092493
     27 H11        12.6140   -3.5150   -3.5900 hc        1 MOL      0.092493
     28 H12        11.0430   -3.4350   -4.1870 hc        1 MOL      0.092493
     29 N3          9.4160   -0.4570   -2.2680 n         1 MOL     -0.208182
     30 C10         8.0600    0.0860   -2.5040 c3        1 MOL      0.026282
     31 C11         7.6310    1.1610   -1.5250 c         1 MOL      0.414922
     32 O6          7.8270    1.0480   -0.3160 o         1 MOL     -0.504736
     33 C12         7.0780   -1.1640   -2.4340 c3        1 MOL     -0.080994
     34 C13         7.2370   -1.8980   -1.1110 c         1 MOL      0.691613
     35 O7          7.9690   -2.9270   -1.1730 o         1 MOL     -0.652692
     36 O8          6.5840   -1.6500   -0.0370 o         1 MOL     -0.652692
     37 H13         9.7950   -0.4570   -1.3270 hn        1 MOL      0.195764
     38 H14         7.9790    0.5370   -3.4950 h1        1 MOL      0.045931
     39 H15         7.0740   -1.7160   -3.3790 hc        1 MOL      0.040943
     40 H16         6.0580   -0.7810   -2.3490 hc        1 MOL      0.040943
     41 N4          7.0680    2.2010   -2.0460 n         1 MOL     -0.354026
     42 C14         6.6300    3.4110   -1.3250 c3        1 MOL     -0.185475
     43 C15         5.4450    3.0890   -0.4090 c         1 MOL      0.672800
     44 O9          4.6040    2.2100   -0.7850 o         1 MOL     -0.526360
     45 H17         6.9660    2.3220   -3.0490 hn        1 MOL      0.308709
     46 H18         6.3800    4.2510   -1.9820 h1        1 MOL      0.122932
     47 H19         7.4810    3.7220   -0.7040 h1        1 MOL      0.122932
     48 N5          5.2950    3.7040    0.7460 n         1 MOL     -0.751917
     49 C16         4.0720    3.6090    1.5550 c3        1 MOL      0.281972
     50 C17         2.9320    4.3040    0.8430 c         1 MOL      0.578090
     51 O10         3.1840    5.3390    0.2520 o         1 MOL     -0.504822
     52 C18         4.4440    4.0190    2.9830 c3        1 MOL     -0.271783
     53 C19         5.3870    3.1150    3.7100 c         1 MOL      0.745731
     54 N6          5.6520    3.3740    4.9810 n         1 MOL     -0.773298
     55 O11         5.9610    2.1650    3.2180 o         1 MOL     -0.662793
     56 H20         6.0110    4.3430    1.0320 hn        1 MOL      0.355722
     57 H21         3.8020    2.5490    1.5500 h1        1 MOL      0.014117
     58 H22         3.5240    3.9690    3.5660 hc        1 MOL      0.078316
     59 H23         4.7770    5.0540    2.9850 hc        1 MOL      0.078316
     60 H24         5.1690    4.1420    5.4220 hn        1 MOL      0.343864
     61 H25         6.2990    2.8330    5.5280 hn        1 MOL      0.343864
     62 N7          1.6810    3.8550    1.1910 n         1 MOL     -0.633804
     63 C20         0.4310    4.3970    0.6870 c3        1 MOL      0.055181
     64 C21         0.2910    4.4030   -0.8860 c         1 MOL      0.556942
     65 O12         1.0270    3.7530   -1.6060 o         1 MOL     -0.474679
     66 H26         1.6660    3.0330    1.7670 hn        1 MOL      0.364135
     67 H27         0.4870    5.4440    0.9940 h1        1 MOL      0.101199
     68 H28        -0.3370    3.9090    1.2820 h1        1 MOL      0.101199
     69 N8         -0.6760    5.1960   -1.4050 n         1 MOL     -0.504486
     70 C22        -1.7380    5.8540   -0.7750 c3        1 MOL     -0.090447
     71 C23        -2.9400    4.9920   -0.4240 c         1 MOL      0.533882
     72 O13        -3.7960    5.3770    0.3700 o         1 MOL     -0.559543
     73 C24        -2.2480    6.9880   -1.6860 c3        1 MOL      0.524639
     74 C25        -1.0880    8.0420   -2.0410 c3        1 MOL     -0.454632
     75 O14        -2.8600    6.5230   -2.8730 oh        1 MOL     -0.635235
     76 H29        -0.5690    5.2350   -2.4130 hn        1 MOL      0.266556
     77 H30        -1.4470    6.2790    0.1890 h1        1 MOL      0.037482
     78 H31        -2.9730    7.4500   -1.0060 h1        1 MOL     -0.003908
     79 H32        -2.1210    6.3900   -3.4690 ho        1 MOL      0.396759
     80 H33        -1.5590    8.9170   -2.4830 hc        1 MOL      0.104004
     81 H34        -0.5090    8.3970   -1.1870 hc        1 MOL      0.104004
     82 H35        -0.4370    7.6830   -2.8440 hc        1 MOL      0.104004
     83 N9         -3.0770    3.8150   -1.0070 n         1 MOL     -0.430485
     84 C26        -4.1680    2.8230   -0.8670 c3        1 MOL      0.266493
     85 C27        -3.9810    1.7250    0.1960 c         1 MOL      0.321551
     86 O15        -2.8340    1.2140    0.2320 o         1 MOL     -0.546082
     87 C28        -4.4690    2.2400   -2.3060 c3        1 MOL     -0.252516
     88 C29        -4.6540    3.4160   -3.3180 c3        1 MOL      0.282674
     89 C30        -5.7140    1.3510   -2.2180 c3        1 MOL      0.279079
     90 C31        -5.1570    2.9450   -4.6470 c3        1 MOL     -0.391056
     91 H36        -2.3100    3.5290   -1.6010 hn        1 MOL      0.252968
     92 H37        -4.9830    3.4800   -0.5660 h1        1 MOL      0.014805
     93 H38        -3.5970    1.6310   -2.5370 hc        1 MOL      0.116257
     94 H39        -3.6720    3.8670   -3.4730 hc        1 MOL     -0.052252
     95 H40        -5.2970    4.2400   -3.0200 hc        1 MOL     -0.052252
     96 H41        -5.6200    0.5720   -1.4660 hc        1 MOL     -0.063056
     97 H42        -6.5940    1.9520   -1.9750 hc        1 MOL     -0.063056
     98 H43        -5.9580    0.8730   -3.1670 hc        1 MOL     -0.063056
     99 H44        -4.5980    2.0620   -4.9710 hc        1 MOL      0.084592
    100 H45        -6.1870    2.6360   -4.5220 hc        1 MOL      0.084592
    101 H46        -4.9800    3.7290   -5.3860 hc        1 MOL      0.084592
    102 N10        -4.9990    1.3310    0.9370 n         1 MOL     -0.123819
    103 C32        -6.3620    1.8140    1.0410 c3        1 MOL     -0.084096
    104 C33        -7.2920    0.6010    0.8510 c         1 MOL      0.485824
    105 O16        -6.8730   -0.5740    0.9610 o         1 MOL     -0.454036
    106 C34        -6.4940    2.5670    2.4160 c3        1 MOL     -0.115666
    107 C35        -5.9230    1.8240    3.6430 c         1 MOL      0.671381
    108 O17        -4.9010    2.3000    4.1460 o         1 MOL     -0.711958
    109 O18        -6.5920    0.8010    4.0480 o         1 MOL     -0.711958
    110 H47        -4.7400    0.4720    1.4130 hn        1 MOL      0.247056
    111 H48        -6.6290    2.5230    0.2640 h1        1 MOL      0.067716
    112 H49        -7.5490    2.7510    2.6290 hc        1 MOL      0.004022
    113 H50        -5.9500    3.4960    2.2850 hc        1 MOL      0.004022
    114 N11        -8.6320    0.8100    0.5020 n         1 MOL     -0.571137
    115 C36        -9.6260   -0.2590    0.4790 c3        1 MOL      0.392350
    116 C37        -9.8220   -0.8810   -0.9590 c         1 MOL      0.200841
    117 O19        -9.7690   -0.1000   -1.9170 o         1 MOL     -0.503000
    118 C38       -10.8970    0.2890    1.0640 c3        1 MOL     -0.294680
    119 C39       -11.9180   -0.7660    1.3590 ca        1 MOL      0.311519
    120 C40       -12.9080   -1.0590    0.4190 ca        1 MOL     -0.343552
    121 C41       -12.0520   -1.2190    2.6910 ca        1 MOL     -0.343552
    122 C42       -13.9410   -1.9860    0.8020 ca        1 MOL     -0.000195
    123 C43       -13.1510   -2.1050    3.0610 ca        1 MOL     -0.000195
    124 C44       -14.0660   -2.4460    2.1050 ca        1 MOL     -0.215674
    125 H51        -8.8970    1.7720    0.3510 hn        1 MOL      0.307603
    126 H52        -9.3160   -0.9960    1.2120 h1        1 MOL      0.057133
    127 H53       -11.3190    1.0420    0.3980 hc        1 MOL      0.074642
    128 H54       -10.7400    0.8170    2.0080 hc        1 MOL      0.074642
    129 H55       -12.7850   -0.6210   -0.5550 ha        1 MOL      0.171817
    130 H56       -11.3890   -0.8310    3.4430 ha        1 MOL      0.171817
    131 H57       -14.6340   -2.2980    0.0390 ha        1 MOL      0.086203
    132 H58       -13.2380   -2.4990    4.0660 ha        1 MOL      0.086203
    133 H59       -14.8680   -3.1480    2.2610 ha        1 MOL      0.105551
    134 N12       -10.0890   -2.1720   -1.1170 n         1 MOL      0.110725
    135 C45        -9.9200   -3.2140   -0.1430 c3        1 MOL      0.126942
    136 C46        -8.4670   -3.5180    0.3070 c         1 MOL      0.182937
    137 O20        -8.2080   -3.5710    1.4790 o         1 MOL     -0.467631
    138 C47       -10.5780   -4.4900   -0.7060 c3        1 MOL     -0.164348
    139 C48       -11.1410   -4.1000   -1.9990 c3        1 MOL      0.036456
    140 C49       -10.3650   -2.7730   -2.3740 c3        1 MOL     -0.196357
    141 H60       -10.4880   -2.8700    0.7180 h1        1 MOL      0.024951
    142 H61        -9.8450   -5.2290   -1.0370 hc        1 MOL      0.062806
    143 H62       -11.3160   -4.8820   -0.0030 hc        1 MOL      0.062806
    144 H63       -11.0910   -4.8350   -2.7990 hc        1 MOL      0.001712
    145 H64       -12.1610   -3.8450   -1.7010 hc        1 MOL      0.001712
    146 H65        -9.3800   -2.9960   -2.7650 h1        1 MOL      0.072513
    147 H66       -10.9330   -2.0410   -2.9430 h1        1 MOL      0.072513
    148 N13        -7.5630   -3.5700   -0.6640 n         1 MOL     -0.202364
    149 C50        -6.1770   -4.0210   -0.4120 c3        1 MOL      0.251764
    150 C51        -6.0730   -5.5930   -0.2770 c         1 MOL      0.321704
    151 O21        -6.3130   -6.2860   -1.2480 o         1 MOL     -0.557001
    152 C52        -5.3040   -3.5810   -1.6260 c3        1 MOL     -0.119481
    153 C53        -5.0150   -2.0860   -1.6810 c3        1 MOL     -0.177644
    154 C54        -4.0430   -1.8020   -2.9330 c         1 MOL      0.754613
    155 O22        -4.5100   -1.9580   -4.0910 o         1 MOL     -0.694757
    156 O23        -2.8830   -1.3790   -2.8590 o         1 MOL     -0.694757
    157 H67        -7.8300   -3.5010   -1.6330 hn        1 MOL      0.277982
    158 H68        -5.8550   -3.5230    0.5020 h1        1 MOL      0.063861
    159 H69        -5.8000   -3.7980   -2.5800 hc        1 MOL      0.029021
    160 H70        -4.2980   -4.0030   -1.5850 hc        1 MOL      0.029021
    161 H71        -4.4300   -1.7790   -0.8140 hc        1 MOL      0.015808
    162 H72        -5.8780   -1.4210   -1.7370 hc        1 MOL      0.015808
    163 N14        -5.8490   -6.2200    0.8810 n         1 MOL     -0.242421
    164 C55        -5.5020   -5.6990    2.1940 c3        1 MOL     -0.192182
    165 H73        -4.6070   -5.0820    2.1150 h1        1 MOL      0.088171
    166 H74        -6.3260   -5.0950    2.5740 h1        1 MOL      0.088171
    167 H75        -5.3140   -6.5270    2.8760 h1        1 MOL      0.088171
    168 H76        -5.7930   -7.2300    0.8770 hn        1 MOL      0.246252
    169 Ca1         7.1500   -0.0340    2.0490 Ca        1 MOL      1.761676
    170 O24         8.7140    2.0190    2.5300 oh        1 MOL     -0.794627
    171 H77         9.1520    2.2800    3.3350 ho        1 MOL      0.392077
    172 H78         9.1700    2.4950    1.8400 ho        1 MOL      0.392077
    173 O25         5.4100   -1.3810    3.4970 oh        1 MOL     -0.794627
    174 H79         5.4690   -1.4790    4.4510 ho        1 MOL      0.392077
    175 H80         4.5080   -1.6250    3.2830 ho        1 MOL      0.392077
    176 O26         4.5760    0.2700    1.4170 oh        1 MOL     -0.794627
    177 H81         3.6810    0.2320    1.7370 ho        1 MOL      0.392077
    178 H82         4.5040    0.6740    0.5530 ho        1 MOL      0.392077
    179 O27         8.1560   -0.4330    4.4120 oh        1 MOL     -0.794627
    180 H83         7.6490   -1.0110    4.9840 ho        1 MOL      0.392077
    181 H84         8.9980   -0.3310    4.8520 ho        1 MOL      0.392077
@<TRIPOS>BOND
     1    1    2 1   
     2    1    4 1   
     3    1    5 1   
     4    1    6 1   
     5    2    3 2   
     6    2    7 1   
     7    7    8 1   
     8    7   15 1   
     9    8    9 1   
    10    8   11 1   
    11    8   16 1   
    12    9   10 2   
    13    9   19 1   
    14   11   12 1   
    15   11   17 1   
    16   11   18 1   
    17   12   13 1   
    18   12   14 1   
    19   19   20 1   
    20   19   24 1   
    21   20   21 1   
    22   20   23 1   
    23   20   25 1   
    24   21   22 2   
    25   21   29 1   
    26   23   26 1   
    27   23   27 1   
    28   23   28 1   
    29   29   30 1   
    30   29   37 1   
    31   30   31 1   
    32   30   33 1   
    33   30   38 1   
    34   31   32 2   
    35   31   41 1   
    36   33   34 1   
    37   33   39 1   
    38   33   40 1   
    39   34   35 1   
    40   34   36 1   
    41   41   42 1   
    42   41   45 1   
    43   42   43 1   
    44   42   46 1   
    45   42   47 1   
    46   43   44 2   
    47   43   48 1   
    48   48   49 1   
    49   48   56 1   
    50   49   50 1   
    51   49   52 1   
    52   49   57 1   
    53   50   51 2   
    54   50   62 1   
    55   52   53 1   
    56   52   58 1   
    57   52   59 1   
    58   53   54 1   
    59   53   55 2   
    60   54   60 1   
    61   54   61 1   
    62   62   63 1   
    63   62   66 1   
    64   63   64 1   
    65   63   67 1   
    66   63   68 1   
    67   64   65 2   
    68   64   69 1   
    69   69   70 1   
    70   69   76 1   
    71   70   71 1   
    72   70   73 1   
    73   70   77 1   
    74   71   72 2   
    75   71   83 1   
    76   73   74 1   
    77   73   75 1   
    78   73   78 1   
    79   74   80 1   
    80   74   81 1   
    81   74   82 1   
    82   75   79 1   
    83   83   84 1   
    84   83   91 1   
    85   84   85 1   
    86   84   87 1   
    87   84   92 1   
    88   85   86 2   
    89   85  102 1   
    90   87   88 1   
    91   87   89 1   
    92   87   93 1   
    93   88   90 1   
    94   88   94 1   
    95   88   95 1   
    96   89   96 1   
    97   89   97 1   
    98   89   98 1   
    99   90   99 1   
   100   90  100 1   
   101   90  101 1   
   102  102  103 1   
   103  102  110 1   
   104  103  104 1   
   105  103  106 1   
   106  103  111 1   
   107  104  105 2   
   108  104  114 1   
   109  106  107 1   
   110  106  112 1   
   111  106  113 1   
   112  107  108 1   
   113  107  109 1   
   114  114  115 1   
   115  114  125 1   
   116  115  116 1   
   117  115  118 1   
   118  115  126 1   
   119  116  117 2   
   120  116  134 1   
   121  118  119 1   
   122  118  127 1   
   123  118  128 1   
   124  119  120 ar  
   125  119  121 ar  
   126  120  122 ar  
   127  120  129 1   
   128  121  123 ar  
   129  121  130 1   
   130  122  124 ar  
   131  122  131 1   
   132  123  124 ar  
   133  123  132 1   
   134  124  133 1   
   135  134  135 1   
   136  134  140 1   
   137  135  136 1   
   138  135  138 1   
   139  135  141 1   
   140  136  137 2   
   141  136  148 1   
   142  138  139 1   
   143  138  142 1   
   144  138  143 1   
   145  139  140 1   
   146  139  144 1   
   147  139  145 1   
   148  140  146 1   
   149  140  147 1   
   150  148  149 1   
   151  148  157 1   
   152  149  150 1   
   153  149  152 1   
   154  149  158 1   
   155  150  151 2   
   156  150  163 1   
   157  152  153 1   
   158  152  159 1   
   159  152  160 1   
   160  153  154 1   
   161  153  161 1   
   162  153  162 1   
   163  154  155 1   
   164  154  156 1   
   165  163  164 1   
   166  163  168 1   
   167  164  165 1   
   168  164  166 1   
   169  164  167 1   
   170  170  171 1   
   171  170  172 1   
   172  173  174 1   
   173  173  175 1   
   174  176  177 1   
   175  176  178 1   
   176  179  180 1   
   177  179  181 1   
@<TRIPOS>SUBSTRUCTURE
     1 MOL         1 TEMP              0 ****  ****    0 ROOT
