@<TRIPOS>MOLECULE
MOL
  192   187     1     0     0
SMALL
resp


@<TRIPOS>ATOM
      1 C1         -8.1570    2.0160   -2.4530 c3        1 MOL     -0.514119
      2 C2         -7.8450    1.6720   -0.9810 c         1 MOL      0.834656
      3 O1         -7.4320    2.6440   -0.2790 o         1 MOL     -0.612324
      4 H1         -7.2290    2.0500   -3.0230 hc        1 MOL      0.124701
      5 H2         -8.8130    1.2530   -2.8730 hc        1 MOL      0.124701
      6 H3         -8.6500    2.9870   -2.5030 hc        1 MOL      0.124701
      7 N1         -7.9350    0.4170   -0.5380 n         1 MOL     -0.619717
      8 C3         -7.6500   -0.0010    0.7910 c3        1 MOL     -0.183254
      9 C4         -6.9770   -1.3630    0.9770 c         1 MOL      0.451011
     10 O2         -6.5440   -1.6610    2.1160 o         1 MOL     -0.421337
     11 C5         -8.9830   -0.0210    1.5770 c3        1 MOL     -0.119588
     12 C6        -10.1640   -0.8490    1.1040 c         1 MOL      0.684068
     13 O3        -10.0420   -2.0980    0.7920 o         1 MOL     -0.670057
     14 O4        -11.2470   -0.2510    0.9740 o         1 MOL     -0.670057
     15 H4         -8.3260   -0.2950   -1.1400 hn        1 MOL      0.331837
     16 H5         -6.9390    0.7220    1.1930 h1        1 MOL      0.170586
     17 H6         -9.4840    0.9470    1.4630 hc        1 MOL      0.076023
     18 H7         -8.8310   -0.1120    2.6510 hc        1 MOL      0.076023
     19 N2         -6.8110   -2.1650   -0.1080 n         1 MOL     -0.496547
     20 C7         -6.3210   -3.5750    0.0100 c3        1 MOL      0.062718
     21 C8         -4.8750   -3.7220    0.5800 c         1 MOL      0.569791
     22 O5         -4.7520   -4.6370    1.3910 o         1 MOL     -0.549623
     23 C9         -6.4490   -4.3580   -1.2410 c3        1 MOL     -0.159311
     24 C10        -7.9380   -4.7060   -1.5790 c3        1 MOL      0.220386
     25 C11        -7.9620   -5.5250   -2.8550 c3        1 MOL     -0.008472
     26 C12        -9.4110   -5.9620   -3.1050 c3        1 MOL      0.191078
     27 N3         -9.8200   -5.9560   -4.5190 n4        1 MOL     -0.487740
     28 H8         -7.1460   -1.8470   -1.0040 hn        1 MOL      0.289512
     29 H9         -7.0560   -4.0120    0.6840 h1        1 MOL      0.113389
     30 H10        -5.9950   -5.3400   -1.1120 hc        1 MOL      0.044053
     31 H11        -6.1450   -3.8090   -2.1360 hc        1 MOL      0.044053
     32 H12        -8.5330   -3.8070   -1.7390 hc        1 MOL     -0.034609
     33 H13        -8.3890   -5.2950   -0.7740 hc        1 MOL     -0.034609
     34 H14        -7.2900   -6.3840   -2.8760 hc        1 MOL     -0.005937
     35 H15        -7.7810   -4.8430   -3.6930 hc        1 MOL     -0.005937
     36 H16       -10.1160   -5.4490   -2.4470 hx        1 MOL      0.054932
     37 H17        -9.4830   -6.9900   -2.7410 hx        1 MOL      0.054932
     38 H18        -9.5080   -5.1000   -4.9700 hn        1 MOL      0.325404
     39 H19        -9.3890   -6.7060   -5.0250 hn        1 MOL      0.325404
     40 H20       -10.8290   -6.0340   -4.5800 hn        1 MOL      0.325404
     41 N4         -3.8580   -3.0260    0.1630 n         1 MOL     -0.491088
     42 C13        -3.7130   -1.7760   -0.5720 c3        1 MOL      0.143779
     43 C14        -3.7820   -0.5010    0.3460 c         1 MOL      0.308547
     44 O6         -3.4630   -0.4750    1.5590 o         1 MOL     -0.378546
     45 C15        -2.4320   -1.6920   -1.4540 c3        1 MOL     -0.234253
     46 C16        -1.1170   -1.8980   -0.7270 c         1 MOL      0.736475
     47 O7         -0.8610   -1.3600    0.3630 o         1 MOL     -0.673282
     48 O8         -0.3510   -2.8180   -1.1200 o         1 MOL     -0.673282
     49 H21        -3.0040   -3.3530    0.5930 hn        1 MOL      0.345655
     50 H22        -4.4870   -1.7110   -1.3470 h1        1 MOL      0.053607
     51 H23        -2.2820   -0.7600   -1.9950 hc        1 MOL      0.050914
     52 H24        -2.6010   -2.4060   -2.2550 hc        1 MOL      0.050914
     53 N5         -4.2230    0.6500   -0.2540 n         1 MOL     -0.289674
     54 C17        -4.2620    1.9730    0.3830 c3        1 MOL      0.049274
     55 C18        -2.9990    2.5940    0.9560 c         1 MOL      0.593974
     56 O9         -1.9200    2.0460    0.8900 o         1 MOL     -0.737658
     57 H25        -4.5360    0.5620   -1.2090 hn        1 MOL      0.204151
     58 H26        -4.9630    1.9580    1.2140 h1        1 MOL      0.064378
     59 H27        -4.6580    2.7240   -0.3040 h1        1 MOL      0.064378
     60 N6         -3.1870    3.7960    1.5090 n         1 MOL     -0.511701
     61 C19        -2.0420    4.6010    2.0140 c3        1 MOL      0.350357
     62 C20        -2.2440    6.1020    1.7330 c         1 MOL      0.409187
     63 O10        -3.2930    6.5180    1.2450 o         1 MOL     -0.545717
     64 C21        -1.7730    4.3540    3.5150 c3        1 MOL     -0.333859
     65 C22        -1.4680    2.9240    3.7980 c         1 MOL      0.708041
     66 O11        -0.4010    2.4900    3.3100 o         1 MOL     -0.664314
     67 O12        -2.2530    2.2340    4.4450 o         1 MOL     -0.664314
     68 H28        -4.0990    4.2220    1.5670 hn        1 MOL      0.309473
     69 H29        -1.2050    4.3140    1.3760 h1        1 MOL      0.041212
     70 H30        -2.7340    4.5600    3.9900 hc        1 MOL      0.077841
     71 H31        -0.9490    4.9570    3.8850 hc        1 MOL      0.077841
     72 N7         -1.2610    6.9260    1.9340 n         1 MOL     -0.342411
     73 C23         0.1840    6.7370    2.1550 c3        1 MOL     -0.487229
     74 C24         0.9660    6.2720    0.9460 c         1 MOL      0.690773
     75 O13         0.6820    6.7320   -0.1500 o         1 MOL     -0.523946
     76 H32        -1.4640    7.8950    1.7210 hn        1 MOL      0.314081
     77 H33         0.4620    6.2700    3.1050 h1        1 MOL      0.193708
     78 H34         0.4380    7.7950    2.1750 h1        1 MOL      0.193708
     79 N8          1.9540    5.4670    1.2140 n         1 MOL     -0.563045
     80 C25         2.6800    4.7090    0.1570 c3        1 MOL      0.056861
     81 C26         1.7490    3.7520   -0.4890 c         1 MOL      0.462432
     82 O14         0.9970    3.0380    0.1880 o         1 MOL     -0.527489
     83 C27         4.0410    4.0620    0.6160 c3        1 MOL      0.477480
     84 C28         4.7620    3.1530   -0.3730 c3        1 MOL     -0.328292
     85 O15         3.8010    3.2020    1.6430 oh        1 MOL     -0.639399
     86 H35         1.9400    5.1020    2.1490 hn        1 MOL      0.298657
     87 H36         3.0520    5.4240   -0.5730 h1        1 MOL      0.037632
     88 H37         4.6990    4.8850    0.9030 h1        1 MOL     -0.018097
     89 H38         4.7080    3.0100    1.8620 ho        1 MOL      0.393923
     90 H39         5.4220    2.4220    0.1010 hc        1 MOL      0.052409
     91 H40         4.0670    2.6470   -1.0330 hc        1 MOL      0.052409
     92 H41         5.3460    3.7960   -1.0290 hc        1 MOL      0.052409
     93 N9          1.7520    3.7170   -1.8510 n         1 MOL     -0.241061
     94 C29         0.9050    2.8350   -2.6690 c3        1 MOL     -0.182968
     95 C30         1.1050    1.3720   -2.2480 c         1 MOL      0.707806
     96 O16         0.5100    0.8370   -1.3200 o         1 MOL     -0.651731
     97 C31        -0.6090    3.3100   -2.6950 c3        1 MOL      0.036482
     98 C32        -0.7220    4.7290   -3.2530 c3        1 MOL     -0.179485
     99 C33        -1.5000    2.4150   -3.6050 c3        1 MOL     -0.673895
    100 C34        -1.9560    5.2980   -2.5440 c3        1 MOL      0.008833
    101 H42         2.3390    4.4170   -2.2850 hn        1 MOL      0.246212
    102 H43         1.3910    3.0090   -3.6220 h1        1 MOL      0.078693
    103 H44        -0.9380    3.1710   -1.6660 hc        1 MOL      0.216597
    104 H45        -0.8610    4.8160   -4.3310 hc        1 MOL      0.059643
    105 H46         0.0900    5.3780   -2.9190 hc        1 MOL      0.059643
    106 H47        -0.9520    2.4580   -4.5420 hc        1 MOL      0.193379
    107 H48        -1.4570    1.4220   -3.1510 hc        1 MOL      0.193379
    108 H49        -2.4960    2.8090   -3.8050 hc        1 MOL      0.193379
    109 H50        -2.0780    6.3630   -2.7050 hc        1 MOL      0.014373
    110 H51        -2.8700    4.8720   -2.9380 hc        1 MOL      0.014373
    111 H52        -1.9280    4.9540   -1.5060 hc        1 MOL      0.014373
    112 N10         2.1520    0.7480   -2.8980 n         1 MOL     -0.392833
    113 C35         2.5400   -0.7390   -2.7510 c3        1 MOL      0.072410
    114 C36         4.0700   -0.8660   -2.7980 c         1 MOL      0.331967
    115 O17         4.5560   -1.9180   -3.1880 o         1 MOL     -0.537738
    116 C37         1.9190   -1.6310   -3.7700 c3        1 MOL      0.502082
    117 C38         1.9260   -0.9570   -5.1940 c3        1 MOL     -0.182928
    118 O18         0.5540   -2.0740   -3.5210 oh        1 MOL     -0.651352
    119 H53         2.7610    1.2510   -3.5270 hn        1 MOL      0.210029
    120 H54         2.2090   -1.2180   -1.8220 h1        1 MOL      0.074069
    121 H55         2.4900   -2.5560   -3.8140 h1        1 MOL     -0.021864
    122 H56         0.4630   -2.4630   -2.6460 ho        1 MOL      0.335464
    123 H57         1.7130   -1.7550   -5.9010 hc        1 MOL      0.022231
    124 H58         1.2100   -0.1390   -5.2340 hc        1 MOL      0.022231
    125 H59         2.9050   -0.5350   -5.4010 hc        1 MOL      0.022231
    126 N11         4.8260    0.2410   -2.5810 n         1 MOL     -0.182869
    127 C39         6.3190    0.0740   -2.6280 c3        1 MOL      0.078114
    128 C40         6.8950   -0.6540   -1.4200 c         1 MOL      0.259011
    129 O19         7.3910    0.0060   -0.4870 o         1 MOL     -0.492992
    130 C41         7.0650    1.4130   -2.9670 c3        1 MOL      0.317167
    131 C42         8.5220    1.2210   -3.3620 c3        1 MOL     -0.341122
    132 O20         6.3550    2.0370   -4.1360 oh        1 MOL     -0.665910
    133 H60         4.4460    1.1320   -2.3180 hn        1 MOL      0.217907
    134 H61         6.5000   -0.5360   -3.5190 h1        1 MOL      0.068698
    135 H62         6.9840    2.0630   -2.0970 h1        1 MOL      0.014880
    136 H63         6.9100    2.7540   -4.4520 ho        1 MOL      0.412180
    137 H64         9.0580    0.4950   -2.7510 hc        1 MOL      0.082389
    138 H65         8.5510    0.9060   -4.3980 hc        1 MOL      0.082389
    139 H66         9.0000    2.1950   -3.2920 hc        1 MOL      0.082389
    140 N12         6.7370   -1.9570   -1.2840 n         1 MOL     -0.137832
    141 C43         6.4620   -2.7050   -0.0600 c3        1 MOL     -0.004302
    142 C44         5.2340   -2.1830    0.7810 c         1 MOL      0.556656
    143 O21         4.6690   -1.1250    0.4600 o         1 MOL     -0.475965
    144 C45         7.6410   -2.6270    0.9460 c3        1 MOL     -0.360055
    145 C46         8.9210   -3.3400    0.3310 c3        1 MOL     -0.018821
    146 C47        10.0610   -2.4470   -0.2220 c3        1 MOL      0.040310
    147 C48        11.4160   -3.1190   -0.7540 c3        1 MOL     -0.036033
    148 N13        12.3880   -2.1260   -1.3000 n4        1 MOL     -0.162608
    149 H67         6.7060   -2.5180   -2.1340 hn        1 MOL      0.227482
    150 H68         6.2250   -3.7590   -0.1710 h1        1 MOL      0.067857
    151 H69         7.2740   -3.1880    1.8090 hc        1 MOL      0.155979
    152 H70         7.8660   -1.5980    1.2070 hc        1 MOL      0.155979
    153 H71         8.6460   -3.9190   -0.5440 hc        1 MOL      0.018649
    154 H72         9.4110   -3.9690    1.0770 hc        1 MOL      0.018649
    155 H73        10.4160   -1.7790    0.5690 hc        1 MOL      0.030761
    156 H74         9.5150   -1.9050   -0.9960 hc        1 MOL      0.030761
    157 H75        11.1730   -3.8090   -1.5620 hx        1 MOL      0.088962
    158 H76        11.8530   -3.6660    0.0760 hx        1 MOL      0.088962
    159 H77        12.4010   -1.2930   -0.7260 hn        1 MOL      0.204742
    160 H78        13.3160   -2.5150   -1.2770 hn        1 MOL      0.204742
    161 H79        12.1430   -1.8250   -2.2370 hn        1 MOL      0.204742
    162 N14         4.7920   -3.0340    1.7390 n         1 MOL     -0.572895
    163 C49         3.6680   -2.7120    2.5360 c3        1 MOL      0.169503
    164 C50         2.3220   -2.5230    1.7130 c         1 MOL      0.224340
    165 O22         1.5940   -1.5280    1.8230 o         1 MOL     -0.440364
    166 C51         3.4570   -3.7990    3.5330 c3        1 MOL      0.051504
    167 C52         4.5860   -3.9470    4.5970 c3        1 MOL     -0.173496
    168 C53         4.4490   -5.1190    5.5760 c         1 MOL      0.694719
    169 O23         4.7790   -6.2790    5.1370 o         1 MOL     -0.639280
    170 O24         3.9490   -4.9800    6.7170 o         1 MOL     -0.639280
    171 H80         5.1990   -3.9560    1.8550 hn        1 MOL      0.386661
    172 H81         3.7740   -1.7700    3.0640 h1        1 MOL      0.080171
    173 H82         3.3710   -4.7740    3.0500 hc        1 MOL      0.035876
    174 H83         2.5670   -3.5500    4.1230 hc        1 MOL      0.035876
    175 H84         4.7480   -3.0150    5.1380 hc        1 MOL     -0.010061
    176 H85         5.5720   -4.1790    4.1980 hc        1 MOL     -0.010061
    177 N15         1.8810   -3.4450    0.8120 n         1 MOL     -0.252265
    178 C54         2.3770   -4.7910    0.2880 c3        1 MOL     -0.061105
    179 H86         1.8710   -5.5960    0.8200 h1        1 MOL      0.049663
    180 H87         2.1610   -4.8680   -0.7780 h1        1 MOL      0.049663
    181 H88         3.4520   -4.8700    0.4480 h1        1 MOL      0.049663
    182 H89         1.0980   -3.0870    0.2870 hn        1 MOL      0.301203
    183 Ca1         0.3450    0.7390    1.3230 Ca        1 MOL      1.827385
    184 O25         2.2220    1.1020    3.1990 oh        1 MOL     -0.954182
    185 H90         2.4790    0.5640    3.9530 ho        1 MOL      0.440707
    186 H91         2.6100    1.9550    3.3770 ho        1 MOL      0.440707
    187 O26         2.8280    0.7230    0.4410 oh        1 MOL     -0.954182
    188 H92         3.4800    0.0230    0.3600 ho        1 MOL      0.440707
    189 H93         3.1900    1.3070    1.1090 ho        1 MOL      0.440707
    190 O27        -1.2750   -0.1230    3.0480 oh        1 MOL     -0.954182
    191 H94        -2.0690   -0.3180    2.5620 ho        1 MOL      0.440707
    192 H95        -1.4780    0.6710    3.5330 ho        1 MOL      0.440707
@<TRIPOS>BOND
     1    1    2 1   
     2    1    4 1   
     3    1    5 1   
     4    1    6 1   
     5    2    3 2   
     6    2    7 1   
     7    7    8 1   
     8    7   15 1   
     9    8    9 1   
    10    8   11 1   
    11    8   16 1   
    12    9   10 2   
    13    9   19 1   
    14   11   12 1   
    15   11   17 1   
    16   11   18 1   
    17   12   13 1   
    18   12   14 1   
    19   19   20 1   
    20   19   28 1   
    21   20   21 1   
    22   20   23 1   
    23   20   29 1   
    24   21   22 2   
    25   21   41 1   
    26   23   24 1   
    27   23   30 1   
    28   23   31 1   
    29   24   25 1   
    30   24   32 1   
    31   24   33 1   
    32   25   26 1   
    33   25   34 1   
    34   25   35 1   
    35   26   27 1   
    36   26   36 1   
    37   26   37 1   
    38   27   38 1   
    39   27   39 1   
    40   27   40 1   
    41   41   42 1   
    42   41   49 1   
    43   42   43 1   
    44   42   45 1   
    45   42   50 1   
    46   43   44 2   
    47   43   53 1   
    48   45   46 1   
    49   45   51 1   
    50   45   52 1   
    51   46   47 1   
    52   46   48 1   
    53   53   54 1   
    54   53   57 1   
    55   54   55 1   
    56   54   58 1   
    57   54   59 1   
    58   55   56 2   
    59   55   60 1   
    60   60   61 1   
    61   60   68 1   
    62   61   62 1   
    63   61   64 1   
    64   61   69 1   
    65   62   63 2   
    66   62   72 1   
    67   64   65 1   
    68   64   70 1   
    69   64   71 1   
    70   65   66 1   
    71   65   67 1   
    72   72   73 1   
    73   72   76 1   
    74   73   74 1   
    75   73   77 1   
    76   73   78 1   
    77   74   75 2   
    78   74   79 1   
    79   79   80 1   
    80   79   86 1   
    81   80   81 1   
    82   80   83 1   
    83   80   87 1   
    84   81   82 2   
    85   81   93 1   
    86   83   84 1   
    87   83   85 1   
    88   83   88 1   
    89   84   90 1   
    90   84   91 1   
    91   84   92 1   
    92   85   89 1   
    93   93   94 1   
    94   93  101 1   
    95   94   95 1   
    96   94   97 1   
    97   94  102 1   
    98   95   96 2   
    99   95  112 1   
   100   97   98 1   
   101   97   99 1   
   102   97  103 1   
   103   98  100 1   
   104   98  104 1   
   105   98  105 1   
   106   99  106 1   
   107   99  107 1   
   108   99  108 1   
   109  100  109 1   
   110  100  110 1   
   111  100  111 1   
   112  112  113 1   
   113  112  119 1   
   114  113  114 1   
   115  113  116 1   
   116  113  120 1   
   117  114  115 2   
   118  114  126 1   
   119  116  117 1   
   120  116  118 1   
   121  116  121 1   
   122  117  123 1   
   123  117  124 1   
   124  117  125 1   
   125  118  122 1   
   126  126  127 1   
   127  126  133 1   
   128  127  128 1   
   129  127  130 1   
   130  127  134 1   
   131  128  129 2   
   132  128  140 1   
   133  130  131 1   
   134  130  132 1   
   135  130  135 1   
   136  131  137 1   
   137  131  138 1   
   138  131  139 1   
   139  132  136 1   
   140  140  141 1   
   141  140  149 1   
   142  141  142 1   
   143  141  144 1   
   144  141  150 1   
   145  142  143 2   
   146  142  162 1   
   147  144  145 1   
   148  144  151 1   
   149  144  152 1   
   150  145  146 1   
   151  145  153 1   
   152  145  154 1   
   153  146  147 1   
   154  146  155 1   
   155  146  156 1   
   156  147  148 1   
   157  147  157 1   
   158  147  158 1   
   159  148  159 1   
   160  148  160 1   
   161  148  161 1   
   162  162  163 1   
   163  162  171 1   
   164  163  164 1   
   165  163  166 1   
   166  163  172 1   
   167  164  165 2   
   168  164  177 1   
   169  166  167 1   
   170  166  173 1   
   171  166  174 1   
   172  167  168 1   
   173  167  175 1   
   174  167  176 1   
   175  168  169 1   
   176  168  170 1   
   177  177  178 1   
   178  177  182 1   
   179  178  179 1   
   180  178  180 1   
   181  178  181 1   
   182  184  185 1   
   183  184  186 1   
   184  187  188 1   
   185  187  189 1   
   186  190  191 1   
   187  190  192 1   
@<TRIPOS>SUBSTRUCTURE
     1 MOL         1 TEMP              0 ****  ****    0 ROOT
