@<TRIPOS>MOLECULE
MOL
  189   185     1     0     0
SMALL
resp


@<TRIPOS>ATOM
      1 C1         12.5930    4.9530   -3.1970 c3        1 MOL     -0.192276
      2 C2         12.4640    3.7950   -2.2430 c         1 MOL      0.669400
      3 O1         13.3490    2.9680   -2.1530 o         1 MOL     -0.573156
      4 H1         11.8890    5.7360   -2.9150 hc        1 MOL      0.052939
      5 H2         13.6090    5.3470   -3.1560 hc        1 MOL      0.052939
      6 H3         12.3740    4.6160   -4.2100 hc        1 MOL      0.052939
      7 N1         11.3250    3.6330   -1.5150 n         1 MOL     -0.270128
      8 C3         11.1620    2.7920   -0.3600 c3        1 MOL     -0.489828
      9 C4          9.7510    2.1740   -0.2320 c         1 MOL      0.866136
     10 O2          8.7660    2.8990   -0.5020 o         1 MOL     -0.787569
     11 C5         11.5460    3.6490    0.9600 c3        1 MOL      0.011235
     12 C6         10.9420    5.0580    0.9460 c         1 MOL      0.603508
     13 O3         11.6730    6.0190    1.2200 o         1 MOL     -0.683844
     14 O4          9.7190    5.1460    0.7970 o         1 MOL     -0.683844
     15 H4         10.5120    4.1180   -1.8560 hn        1 MOL      0.221806
     16 H5         11.8190    1.9270   -0.4310 h1        1 MOL      0.132508
     17 H6         12.6320    3.7990    1.0020 hc        1 MOL      0.053634
     18 H7         11.1730    3.1460    1.8410 hc        1 MOL      0.053634
     19 N2          9.7100    0.9430    0.1090 n         1 MOL     -0.429111
     20 C7          8.5820    0.0230   -0.2660 c3        1 MOL     -0.186317
     21 C8          7.4980    0.0590    0.7850 c         1 MOL      0.649761
     22 O5          7.7470    0.0390    1.9910 o         1 MOL     -0.498733
     23 C9          9.1140   -1.4030   -0.5190 c3        1 MOL     -0.301770
     24 C10         8.0150   -2.3110   -1.0230 c3        1 MOL      0.092485
     25 C11         8.4930   -3.7240   -1.4590 c3        1 MOL      0.025239
     26 C12         9.4270   -3.5810   -2.6970 c3        1 MOL     -0.011187
     27 N3          9.8500   -4.9350   -3.0720 n4        1 MOL     -0.128455
     28 H8         10.6410    0.5950    0.2550 hn        1 MOL      0.292217
     29 H9          8.2270    0.4790   -1.1890 h1        1 MOL      0.171193
     30 H10         9.4160   -1.8010    0.4560 hc        1 MOL      0.127621
     31 H11         9.9950   -1.3720   -1.1530 hc        1 MOL      0.127621
     32 H12         7.5740   -1.8220   -1.8890 hc        1 MOL      0.024531
     33 H13         7.2280   -2.4040   -0.2720 hc        1 MOL      0.024531
     34 H14         7.5520   -4.2230   -1.6790 hc        1 MOL      0.022192
     35 H15         9.0810   -4.1660   -0.6520 hc        1 MOL      0.022192
     36 H16        10.3760   -3.1010   -2.4620 hx        1 MOL      0.075476
     37 H17         8.8750   -3.1860   -3.5510 hx        1 MOL      0.075476
     38 H18         9.1300   -5.6340   -3.1670 hn        1 MOL      0.193163
     39 H19        10.3220   -4.8680   -3.9660 hn        1 MOL      0.193163
     40 H20        10.4610   -5.3250   -2.3700 hn        1 MOL      0.193163
     41 N4          6.2340   -0.0450    0.2520 n         1 MOL     -0.780159
     42 C13         4.9990   -0.1760    0.9920 c3        1 MOL      0.445992
     43 C14         3.8380   -0.7770    0.2040 c         1 MOL      0.375871
     44 O6          3.8260   -0.7650   -1.0000 o         1 MOL     -0.470069
     45 C15         4.4180    1.2240    1.4330 c3        1 MOL      0.050106
     46 C16         4.5830    2.2750    0.2310 c         1 MOL      0.336105
     47 O7          3.6160    2.4990   -0.4620 o         1 MOL     -0.549994
     48 O8          5.7110    2.7580   -0.0280 o         1 MOL     -0.549994
     49 H21         6.2130   -0.0390   -0.7550 hn        1 MOL      0.352602
     50 H22         5.1140   -0.8040    1.8720 h1        1 MOL      0.020512
     51 H23         5.0460    1.5990    2.2420 hc        1 MOL     -0.057480
     52 H24         3.3700    1.1120    1.7200 hc        1 MOL     -0.057480
     53 N5          2.8240   -1.4700    0.7600 n         1 MOL     -0.379321
     54 C17         2.4340   -1.5180    2.1840 c3        1 MOL     -0.244818
     55 C18         1.9080   -2.9510    2.6080 c         1 MOL      0.625114
     56 O9          2.1500   -3.9740    1.9350 o         1 MOL     -0.573836
     57 H25         2.2650   -1.9890    0.1120 hn        1 MOL      0.313839
     58 H26         1.6360   -0.7900    2.2970 h1        1 MOL      0.130559
     59 H27         3.2680   -1.2280    2.8190 h1        1 MOL      0.130559
     60 N6          1.1430   -2.8480    3.6940 n         1 MOL     -0.473744
     61 C19         0.5570   -4.0120    4.4020 c3        1 MOL      0.153335
     62 C20        -0.5090   -4.7890    3.5990 c         1 MOL      0.542913
     63 O10        -1.5700   -4.2410    3.2890 o         1 MOL     -0.526810
     64 C21         0.0210   -3.4860    5.7460 c3        1 MOL     -0.364068
     65 C22        -0.6140   -4.5040    6.6320 c         1 MOL      0.796110
     66 O11        -0.3610   -5.6960    6.3790 o         1 MOL     -0.666369
     67 O12        -1.3730   -4.2860    7.5790 o         1 MOL     -0.666369
     68 H28         1.0950   -1.9760    4.1980 hn        1 MOL      0.287857
     69 H29         1.3000   -4.7620    4.6830 h1        1 MOL      0.003895
     70 H30        -0.7530   -2.7640    5.4910 hc        1 MOL      0.086270
     71 H31         0.8020   -3.0090    6.3330 hc        1 MOL      0.086270
     72 N7         -0.2020   -6.0170    3.3020 n         1 MOL     -0.280998
     73 C23        -0.9480   -6.9780    2.4200 c3        1 MOL     -0.195655
     74 C24        -1.0680   -6.5390    0.9150 c         1 MOL      0.516759
     75 O13        -1.8940   -7.0730    0.1570 o         1 MOL     -0.571336
     76 H32         0.6580   -6.4240    3.6350 hn        1 MOL      0.244919
     77 H33        -1.9360   -7.1530    2.8450 h1        1 MOL      0.127945
     78 H34        -0.4080   -7.9220    2.4110 h1        1 MOL      0.127945
     79 N8         -0.3710   -5.4860    0.5010 n         1 MOL     -0.261892
     80 C25        -0.2720   -4.9500   -0.9160 c3        1 MOL     -0.108944
     81 C26        -0.2800   -3.3730   -0.9580 c         1 MOL      0.378941
     82 O14         0.2390   -2.7280   -0.0870 o         1 MOL     -0.444445
     83 C27         0.9430   -5.5180   -1.6150 c3        1 MOL      0.412581
     84 C28         2.3230   -5.3350   -0.9250 c3        1 MOL     -0.395911
     85 O15         0.8670   -6.9050   -1.8900 oh        1 MOL     -0.617859
     86 H35         0.3580   -5.1690    1.1250 hn        1 MOL      0.163497
     87 H36        -1.1750   -5.2980   -1.4050 h1        1 MOL      0.073137
     88 H37         0.9300   -5.0660   -2.6030 h1        1 MOL     -0.016149
     89 H38         0.9480   -7.3720   -1.0490 ho        1 MOL      0.376248
     90 H39         3.1220   -5.8410   -1.4510 hc        1 MOL      0.100065
     91 H40         2.5100   -4.2740   -0.7990 hc        1 MOL      0.100065
     92 H41         2.2530   -5.8380    0.0470 hc        1 MOL      0.100065
     93 N9         -0.9910   -2.8670   -1.9720 n         1 MOL     -0.000420
     94 C29        -1.4090   -1.4600   -2.1130 c3        1 MOL     -0.238925
     95 C30        -2.8560   -1.3370   -1.6700 c         1 MOL      0.607491
     96 O16        -3.2160   -0.3100   -1.0920 o         1 MOL     -0.539402
     97 C31        -1.1430   -0.8450   -3.5470 c3        1 MOL      0.264093
     98 C32         0.3870   -0.8470   -4.1180 c3        1 MOL     -0.012077
     99 C33        -1.6000    0.5510   -3.8540 c3        1 MOL     -0.488796
    100 C34         1.0940   -2.1750   -4.1910 c3        1 MOL     -0.315179
    101 H42        -1.4200   -3.4630   -2.6690 hn        1 MOL      0.159686
    102 H43        -0.7970   -0.9080   -1.4030 h1        1 MOL      0.120647
    103 H44        -1.7100   -1.4670   -4.2360 hc        1 MOL     -0.008699
    104 H45         1.0000   -0.1510   -3.5510 hc        1 MOL      0.045334
    105 H46         0.2190   -0.6000   -5.1630 hc        1 MOL      0.045334
    106 H47        -1.2530    1.3160   -3.1580 hc        1 MOL      0.120824
    107 H48        -1.3650    0.9150   -4.8480 hc        1 MOL      0.120824
    108 H49        -2.6880    0.5680   -3.8020 hc        1 MOL      0.120824
    109 H50         0.4520   -2.9300   -4.6540 hc        1 MOL      0.066694
    110 H51         2.0180   -1.9840   -4.7290 hc        1 MOL      0.066694
    111 H52         1.3470   -2.3220   -3.1460 hc        1 MOL      0.066694
    112 N10        -3.6900   -2.3270   -1.8950 n         1 MOL     -0.438382
    113 C35        -5.0300   -2.4160   -1.4290 c3        1 MOL     -0.095534
    114 C36        -6.0340   -2.0280   -2.5480 c         1 MOL      0.668414
    115 O17        -5.8550   -2.4880   -3.6620 o         1 MOL     -0.560265
    116 C37        -5.3130   -3.8990   -0.9960 c3        1 MOL      0.417455
    117 C38        -4.2110   -4.4530   -0.0910 c3        1 MOL     -0.486011
    118 O18        -6.4600   -4.0200   -0.2340 oh        1 MOL     -0.685370
    119 H53        -3.4670   -3.1620   -2.4190 hn        1 MOL      0.225421
    120 H54        -5.0870   -1.7820   -0.5530 h1        1 MOL      0.134332
    121 H55        -5.4420   -4.5110   -1.8820 h1        1 MOL     -0.000948
    122 H56        -6.3910   -4.7580    0.3770 ho        1 MOL      0.424529
    123 H57        -3.2170   -4.3170   -0.5400 hc        1 MOL      0.144579
    124 H58        -4.0830   -3.8660    0.8190 hc        1 MOL      0.144579
    125 H59        -4.2790   -5.5210    0.1180 hc        1 MOL      0.144579
    126 N11        -7.1160   -1.3220   -2.2260 n         1 MOL     -0.570680
    127 C39        -8.1340   -0.7500   -3.1850 c3        1 MOL     -0.014665
    128 C40        -8.7880    0.5710   -2.6270 c         1 MOL      0.647429
    129 O19        -9.2320    1.4170   -3.4770 o         1 MOL     -0.591819
    130 C41        -9.2490   -1.7830   -3.4680 c3        1 MOL      0.293651
    131 C42       -10.2840   -1.4330   -4.6120 c3        1 MOL     -0.394398
    132 O20        -9.9410   -2.0680   -2.2940 oh        1 MOL     -0.607673
    133 H60        -7.3210   -1.2640   -1.2460 hn        1 MOL      0.293705
    134 H61        -7.5930   -0.4860   -4.0840 h1        1 MOL      0.122765
    135 H62        -8.7380   -2.6450   -3.8810 h1        1 MOL      0.044912
    136 H63        -9.7600   -2.9610   -2.0300 ho        1 MOL      0.403406
    137 H64       -10.9870   -2.2460   -4.8440 hc        1 MOL      0.107209
    138 H65       -10.9470   -0.6300   -4.2950 hc        1 MOL      0.107209
    139 H66        -9.8330   -1.1160   -5.5530 hc        1 MOL      0.107209
    140 N12        -8.6930    0.9370   -1.3550 n         1 MOL     -0.590436
    141 C43        -9.0730    2.2630   -0.8300 c3        1 MOL      0.238925
    142 C44        -8.1100    2.6190    0.2280 c         1 MOL      0.432285
    143 O21        -7.7140    1.8310    1.0780 o         1 MOL     -0.500265
    144 C45       -10.5340    2.1730   -0.3540 c3        1 MOL     -0.305051
    145 C46       -11.0360    3.6030   -0.1030 c3        1 MOL     -0.047294
    146 C47       -12.4820    3.5360    0.4160 c3        1 MOL     -0.205837
    147 C48       -12.5560    3.2110    1.9060 c3        1 MOL      0.097721
    148 N13       -13.9600    3.0880    2.2660 n4        1 MOL     -0.270441
    149 H67        -8.3520    0.2280   -0.7270 hn        1 MOL      0.299722
    150 H68        -9.0610    2.9350   -1.6920 h1        1 MOL      0.067228
    151 H69       -10.6050    1.5890    0.5650 hc        1 MOL      0.132511
    152 H70       -11.1450    1.7990   -1.1690 hc        1 MOL      0.132511
    153 H71       -10.9280    4.0670   -1.0810 hc        1 MOL      0.061340
    154 H72       -10.3880    4.0780    0.6360 hc        1 MOL      0.061340
    155 H73       -13.1010    2.8320   -0.1520 hc        1 MOL      0.086795
    156 H74       -12.9270    4.5120    0.2270 hc        1 MOL      0.086795
    157 H75       -12.1290    3.9970    2.5270 hx        1 MOL      0.072718
    158 H76       -11.9800    2.3030    2.0800 hx        1 MOL      0.072718
    159 H77       -14.1210    3.1760    3.2550 hn        1 MOL      0.261965
    160 H78       -14.5350    3.7930    1.8160 hn        1 MOL      0.261965
    161 H79       -14.3110    2.2060    1.9170 hn        1 MOL      0.261965
    162 N14        -7.7470    3.8870    0.3540 n         1 MOL     -0.240985
    163 C49        -6.6380    4.3960    1.2440 c3        1 MOL      0.212430
    164 C50        -5.2350    3.8040    0.9420 c         1 MOL      0.357708
    165 O22        -4.6090    3.1730    1.7920 o         1 MOL     -0.500133
    166 C51        -6.6480    5.9310    1.3000 c3        1 MOL     -0.025635
    167 C52        -7.6870    6.3790    2.3110 c3        1 MOL     -0.356736
    168 C53        -7.8010    7.9020    2.3830 c         1 MOL      0.722587
    169 O23        -8.6670    8.4480    1.6670 o         1 MOL     -0.646585
    170 O24        -7.0330    8.6950    2.9690 o         1 MOL     -0.646585
    171 H80        -8.2040    4.5550   -0.2470 hn        1 MOL      0.159810
    172 H81        -6.8180    3.9570    2.2200 h1        1 MOL      0.023716
    173 H82        -6.8790    6.2920    0.3070 hc        1 MOL      0.065484
    174 H83        -5.6590    6.2940    1.5810 hc        1 MOL      0.065484
    175 H84        -7.4730    6.0410    3.3280 hc        1 MOL      0.063932
    176 H85        -8.6530    5.9230    2.1000 hc        1 MOL      0.063932
    177 N15        -4.6420    3.8670   -0.2630 n         1 MOL     -0.373654
    178 C54        -5.0990    4.6100   -1.4680 c3        1 MOL      0.048375
    179 H86        -5.6100    5.5220   -1.1600 h1        1 MOL      0.019054
    180 H87        -4.2380    4.8680   -2.0860 h1        1 MOL      0.019054
    181 H88        -5.7850    3.9860   -2.0420 h1        1 MOL      0.019054
    182 H89        -3.7380    3.4320   -0.3640 hn        1 MOL      0.307076
    183 Ca1         7.0960    4.8360    0.4790 Ca        1 MOL      1.715567
    184 O25         4.7210    5.4810   -0.6430 oh        1 MOL     -0.869009
    185 H90         4.1620    5.0260   -0.0060 ho        1 MOL      0.429437
    186 H91         4.4210    5.1470   -1.4940 ho        1 MOL      0.429437
    187 O26         7.7890    3.1350    2.5650 oh        1 MOL     -0.869009
    188 H92         8.1200    3.6900    3.2720 ho        1 MOL      0.429437
    189 H93         7.4430    2.3700    3.0160 ho        1 MOL      0.429437
@<TRIPOS>BOND
     1    1    2 1   
     2    1    4 1   
     3    1    5 1   
     4    1    6 1   
     5    2    3 2   
     6    2    7 1   
     7    7    8 1   
     8    7   15 1   
     9    8    9 1   
    10    8   11 1   
    11    8   16 1   
    12    9   10 2   
    13    9   19 1   
    14   11   12 1   
    15   11   17 1   
    16   11   18 1   
    17   12   13 1   
    18   12   14 1   
    19   19   20 1   
    20   19   28 1   
    21   20   21 1   
    22   20   23 1   
    23   20   29 1   
    24   21   22 2   
    25   21   41 1   
    26   23   24 1   
    27   23   30 1   
    28   23   31 1   
    29   24   25 1   
    30   24   32 1   
    31   24   33 1   
    32   25   26 1   
    33   25   34 1   
    34   25   35 1   
    35   26   27 1   
    36   26   36 1   
    37   26   37 1   
    38   27   38 1   
    39   27   39 1   
    40   27   40 1   
    41   41   42 1   
    42   41   49 1   
    43   42   43 1   
    44   42   45 1   
    45   42   50 1   
    46   43   44 2   
    47   43   53 1   
    48   45   46 1   
    49   45   51 1   
    50   45   52 1   
    51   46   47 1   
    52   46   48 1   
    53   53   54 1   
    54   53   57 1   
    55   54   55 1   
    56   54   58 1   
    57   54   59 1   
    58   55   56 2   
    59   55   60 1   
    60   60   61 1   
    61   60   68 1   
    62   61   62 1   
    63   61   64 1   
    64   61   69 1   
    65   62   63 2   
    66   62   72 1   
    67   64   65 1   
    68   64   70 1   
    69   64   71 1   
    70   65   66 1   
    71   65   67 1   
    72   72   73 1   
    73   72   76 1   
    74   73   74 1   
    75   73   77 1   
    76   73   78 1   
    77   74   75 2   
    78   74   79 1   
    79   79   80 1   
    80   79   86 1   
    81   80   81 1   
    82   80   83 1   
    83   80   87 1   
    84   81   82 2   
    85   81   93 1   
    86   83   84 1   
    87   83   85 1   
    88   83   88 1   
    89   84   90 1   
    90   84   91 1   
    91   84   92 1   
    92   85   89 1   
    93   93   94 1   
    94   93  101 1   
    95   94   95 1   
    96   94   97 1   
    97   94  102 1   
    98   95   96 2   
    99   95  112 1   
   100   97   98 1   
   101   97   99 1   
   102   97  103 1   
   103   98  100 1   
   104   98  104 1   
   105   98  105 1   
   106   99  106 1   
   107   99  107 1   
   108   99  108 1   
   109  100  109 1   
   110  100  110 1   
   111  100  111 1   
   112  112  113 1   
   113  112  119 1   
   114  113  114 1   
   115  113  116 1   
   116  113  120 1   
   117  114  115 2   
   118  114  126 1   
   119  116  117 1   
   120  116  118 1   
   121  116  121 1   
   122  117  123 1   
   123  117  124 1   
   124  117  125 1   
   125  118  122 1   
   126  126  127 1   
   127  126  133 1   
   128  127  128 1   
   129  127  130 1   
   130  127  134 1   
   131  128  129 2   
   132  128  140 1   
   133  130  131 1   
   134  130  132 1   
   135  130  135 1   
   136  131  137 1   
   137  131  138 1   
   138  131  139 1   
   139  132  136 1   
   140  140  141 1   
   141  140  149 1   
   142  141  142 1   
   143  141  144 1   
   144  141  150 1   
   145  142  143 2   
   146  142  162 1   
   147  144  145 1   
   148  144  151 1   
   149  144  152 1   
   150  145  146 1   
   151  145  153 1   
   152  145  154 1   
   153  146  147 1   
   154  146  155 1   
   155  146  156 1   
   156  147  148 1   
   157  147  157 1   
   158  147  158 1   
   159  148  159 1   
   160  148  160 1   
   161  148  161 1   
   162  162  163 1   
   163  162  171 1   
   164  163  164 1   
   165  163  166 1   
   166  163  172 1   
   167  164  165 2   
   168  164  177 1   
   169  166  167 1   
   170  166  173 1   
   171  166  174 1   
   172  167  168 1   
   173  167  175 1   
   174  167  176 1   
   175  168  169 1   
   176  168  170 1   
   177  177  178 1   
   178  177  182 1   
   179  178  179 1   
   180  178  180 1   
   181  178  181 1   
   182  184  185 1   
   183  184  186 1   
   184  187  188 1   
   185  187  189 1   
@<TRIPOS>SUBSTRUCTURE
     1 MOL         1 TEMP              0 ****  ****    0 ROOT
