@<TRIPOS>MOLECULE
MOL
  181   177     1     0     0
SMALL
resp


@<TRIPOS>ATOM
      1 C1         -0.6990    6.6850    2.6300 c3        1 MOL     -0.373639
      2 C2         -1.9610    6.5510    1.7500 c         1 MOL      0.645951
      3 O1         -2.0380    6.9530    0.5340 o         1 MOL     -0.573966
      4 H1         -0.6500    7.6920    3.0440 hc        1 MOL      0.090867
      5 H2         -0.7440    5.9600    3.4430 hc        1 MOL      0.090867
      6 H3          0.1880    6.4980    2.0250 hc        1 MOL      0.090867
      7 N1         -3.0620    6.0160    2.2980 n         1 MOL     -0.455479
      8 C3         -4.3430    5.8850    1.5530 c3        1 MOL      0.028966
      9 C4         -4.3950    4.6930    0.6410 c         1 MOL      0.702876
     10 O2         -3.7270    3.6750    0.8870 o         1 MOL     -0.593792
     11 C5         -5.3730    5.7060    2.7030 c3        1 MOL     -0.305834
     12 C6         -6.8010    6.0070    2.2350 c         1 MOL      0.730018
     13 O3         -7.1370    7.1540    1.8630 o         1 MOL     -0.724483
     14 O4         -7.7310    5.2010    2.4580 o         1 MOL     -0.724483
     15 H4         -2.9180    5.6200    3.2230 hn        1 MOL      0.278042
     16 H5         -4.6350    6.7960    1.0370 h1        1 MOL      0.062352
     17 H6         -5.0800    6.2780    3.5870 hc        1 MOL      0.065132
     18 H7         -5.3200    4.6640    3.0180 hc        1 MOL      0.065132
     19 N2         -5.0590    4.9570   -0.4860 n         1 MOL     -0.686396
     20 C7         -5.1250    4.0860   -1.6850 c3        1 MOL      0.436012
     21 C8         -3.6930    3.8060   -2.1820 c         1 MOL      0.353203
     22 O5         -2.7750    4.5470   -1.8500 o         1 MOL     -0.451832
     23 C9         -5.8390    4.8480   -2.7950 c3        1 MOL     -0.242299
     24 H8         -5.4150    5.8850   -0.6370 hn        1 MOL      0.327933
     25 H9         -5.7620    3.2310   -1.4480 h1        1 MOL      0.021891
     26 H10        -6.0250    4.2860   -3.7120 hc        1 MOL      0.054497
     27 H11        -6.8960    4.9760   -2.5590 hc        1 MOL      0.054497
     28 H12        -5.3760    5.7990   -3.0600 hc        1 MOL      0.054497
     29 N3         -3.5110    2.7000   -2.8720 n         1 MOL     -0.456272
     30 C10        -4.4720    1.6710   -3.3150 c3        1 MOL      0.149463
     31 C11        -4.7540    0.5640   -2.2220 c         1 MOL      0.397331
     32 O6         -3.9100    0.2570   -1.3260 o         1 MOL     -0.475795
     33 C12        -3.9800    1.1100   -4.6230 c3        1 MOL     -0.335345
     34 C13        -2.5830    0.5500   -4.6270 c         1 MOL      0.855817
     35 O7         -1.8560    0.4670   -3.6620 o         1 MOL     -0.733077
     36 O8         -2.1020    0.1300   -5.6890 o         1 MOL     -0.733077
     37 H13        -2.5390    2.4810   -3.0430 hn        1 MOL      0.311348
     38 H14        -5.4980    2.0330   -3.4610 h1        1 MOL      0.046655
     39 H15        -3.9870    1.8780   -5.3930 hc        1 MOL      0.058003
     40 H16        -4.7140    0.3870   -4.9850 hc        1 MOL      0.058003
     41 N4         -5.8360   -0.1500   -2.3470 n         1 MOL     -0.491703
     42 C14        -6.1270   -1.2850   -1.4420 c3        1 MOL      0.376888
     43 C15        -7.3760   -1.1330   -0.5190 c         1 MOL      0.331130
     44 O9         -7.9670   -0.0650   -0.4730 o         1 MOL     -0.459525
     45 H17        -6.5370    0.1500   -3.0120 hn        1 MOL      0.285899
     46 H18        -5.2060   -1.6300   -0.9590 h1        1 MOL     -0.050981
     47 H19        -6.3720   -2.1730   -2.0290 h1        1 MOL     -0.050981
     48 N5         -7.4650   -2.0800    0.4400 n         1 MOL     -0.324779
     49 C16        -6.8780   -3.3820    0.5920 c3        1 MOL     -0.027118
     50 C17        -5.5370   -3.4000    1.3300 c         1 MOL      0.699992
     51 O10        -4.9300   -2.3440    1.5400 o         1 MOL     -0.529898
     52 C18        -8.0240   -4.2430    1.1550 c3        1 MOL     -0.211722
     53 C19        -8.6730   -3.8520    2.4530 c         1 MOL      0.668969
     54 N6         -8.7080   -4.7610    3.3540 n         1 MOL     -0.759709
     55 O11        -9.0980   -2.7110    2.6320 o         1 MOL     -0.525098
     56 H20        -8.1430   -1.8920    1.1680 hn        1 MOL      0.273466
     57 H21        -6.6580   -3.6990   -0.4230 h1        1 MOL      0.062070
     58 H22        -7.6850   -5.2620    1.2950 hc        1 MOL      0.050628
     59 H23        -8.8140   -4.2690    0.4100 hc        1 MOL      0.050628
     60 H24        -8.2200   -5.6410    3.2560 hn        1 MOL      0.366809
     61 H25        -9.1260   -4.5010    4.2310 hn        1 MOL      0.366809
     62 N7         -5.0170   -4.5530    1.6870 n         1 MOL     -0.583101
     63 C20        -3.8560   -4.6650    2.6000 c3        1 MOL     -0.095440
     64 C21        -2.4920   -4.6960    1.9640 c         1 MOL      0.397003
     65 O12        -1.4750   -4.7850    2.6960 o         1 MOL     -0.552715
     66 H26        -5.5430   -5.3910    1.4690 hn        1 MOL      0.315896
     67 H27        -3.8560   -5.5650    3.2150 h1        1 MOL      0.127304
     68 H28        -3.7940   -3.8540    3.3230 h1        1 MOL      0.127304
     69 N8         -2.3890   -4.7090    0.6450 n         1 MOL     -0.091958
     70 C22        -1.1380   -5.0130   -0.0450 c3        1 MOL     -0.038824
     71 C23        -0.1700   -3.8660    0.1380 c         1 MOL      0.258092
     72 O13        -0.2830   -2.7480   -0.3770 o         1 MOL     -0.457803
     73 C24        -1.3360   -5.3240   -1.5810 c3        1 MOL      0.362205
     74 C25         0.0370   -5.7980   -2.1750 c3        1 MOL     -0.365365
     75 O14        -2.2800   -6.2890   -1.6340 oh        1 MOL     -0.662231
     76 H29        -3.2000   -4.5690    0.0670 hn        1 MOL      0.146348
     77 H30        -0.7420   -5.9470    0.3490 h1        1 MOL      0.072955
     78 H31        -1.6780   -4.4050   -2.0610 h1        1 MOL     -0.038541
     79 H32        -2.1780   -6.6680   -2.5140 ho        1 MOL      0.409305
     80 H33         0.7800   -5.0730   -1.8620 hc        1 MOL      0.107661
     81 H34         0.3590   -6.7730   -1.7960 hc        1 MOL      0.107661
     82 H35         0.0210   -5.8290   -3.2640 hc        1 MOL      0.107661
     83 N9          0.8220   -4.2390    0.9350 n         1 MOL     -0.092856
     84 C26         2.2120   -3.7060    1.0010 c3        1 MOL     -0.734093
     85 C27         2.8090   -3.6980   -0.4490 c         1 MOL      0.730409
     86 O15         2.9320   -4.7690   -1.0320 o         1 MOL     -0.580212
     87 C28         3.0850   -4.4390    2.0050 c3        1 MOL      0.444483
     88 C29         4.4890   -3.8920    2.0010 c3        1 MOL      0.144656
     89 C30         2.5010   -4.4200    3.4590 c3        1 MOL     -0.407957
     90 C31         5.4010   -4.1650    3.1640 c3        1 MOL     -0.353439
     91 H36         0.7010   -5.0660    1.5020 hn        1 MOL      0.251468
     92 H37         2.2550   -2.6890    1.4010 h1        1 MOL      0.379210
     93 H38         3.1080   -5.4910    1.7240 hc        1 MOL     -0.052634
     94 H39         4.4320   -2.8130    1.9280 hc        1 MOL     -0.028715
     95 H40         4.8580   -4.2860    1.0440 hc        1 MOL     -0.028715
     96 H41         1.4380   -4.6360    3.3660 hc        1 MOL      0.092398
     97 H42         2.9970   -5.2110    4.0160 hc        1 MOL      0.092398
     98 H43         2.4720   -3.4340    3.9260 hc        1 MOL      0.092398
     99 H44         6.3830   -4.1060    2.6920 hc        1 MOL      0.074584
    100 H45         5.2530   -3.4190    3.9470 hc        1 MOL      0.074584
    101 H46         5.2770   -5.1510    3.5990 hc        1 MOL      0.074584
    102 N10         3.3000   -2.5340   -0.9190 n         1 MOL     -0.363909
    103 C32         3.9600   -2.5220   -2.2810 c3        1 MOL     -0.093634
    104 C33         5.1860   -1.5810   -2.2930 c         1 MOL      0.576793
    105 O16         6.0600   -1.6210   -3.1620 o         1 MOL     -0.553750
    106 C34         2.9130   -2.2330   -3.4360 c3        1 MOL      0.000744
    107 C35         2.0010   -1.0960   -3.1910 c         1 MOL      0.772897
    108 O17         2.4890    0.0890   -3.2980 o         1 MOL     -0.712598
    109 O18         0.8070   -1.3740   -2.9390 o         1 MOL     -0.712598
    110 H47         3.1110   -1.6370   -0.4790 hn        1 MOL      0.095738
    111 H48         4.3870   -3.5090   -2.4560 h1        1 MOL      0.118073
    112 H49         2.2420   -3.0890   -3.5960 hc        1 MOL     -0.006688
    113 H50         3.5130   -2.0640   -4.3310 hc        1 MOL     -0.006688
    114 N11         5.4070   -0.6820   -1.2680 n         1 MOL     -0.550173
    115 C36         6.5170    0.3080   -1.1550 c3        1 MOL      0.213124
    116 C37         6.2420    1.4230   -0.1010 c         1 MOL      0.259364
    117 O19         6.7120    1.3270    1.0190 o         1 MOL     -0.395178
    118 C38         7.8220   -0.4730   -0.8270 c3        1 MOL     -0.344465
    119 C39         9.0060    0.3810   -1.0430 ca        1 MOL      0.289683
    120 C40         9.2330    0.8960   -2.2520 ca        1 MOL     -0.266893
    121 C41         9.9430    0.5010    0.0000 ca        1 MOL     -0.266893
    122 C42        10.3360    1.7570   -2.4870 ca        1 MOL     -0.071398
    123 C43        11.0450    1.3680   -0.1980 ca        1 MOL     -0.071398
    124 C44        11.2500    2.0190   -1.4330 ca        1 MOL     -0.184928
    125 H51         4.6260   -0.4740   -0.6700 hn        1 MOL      0.323689
    126 H52         6.6240    0.6990   -2.1690 h1        1 MOL      0.086979
    127 H53         7.8820   -1.3920   -1.4110 hc        1 MOL      0.114563
    128 H54         7.7760   -0.8500    0.2000 hc        1 MOL      0.114563
    129 H55         8.5320    0.6900   -3.0390 ha        1 MOL      0.146002
    130 H56         9.7990   -0.0180    0.9310 ha        1 MOL      0.146002
    131 H57        10.4920    2.2170   -3.4430 ha        1 MOL      0.095198
    132 H58        11.6550    1.5500    0.6780 ha        1 MOL      0.095198
    133 H59        12.0750    2.6890   -1.5970 ha        1 MOL      0.108552
    134 N12         5.3140    2.3950   -0.4300 n         1 MOL     -0.129013
    135 C45         4.9560    3.4990    0.4850 c3        1 MOL     -0.051187
    136 C46         4.6690    3.0640    1.8960 c         1 MOL      0.231944
    137 O20         4.8960    3.7680    2.8530 o         1 MOL     -0.503164
    138 C47         3.8000    4.1990   -0.2680 c3        1 MOL     -0.069012
    139 C48         3.9220    3.8280   -1.7150 c3        1 MOL     -0.105455
    140 C49         4.6260    2.4970   -1.6810 c3        1 MOL      0.104300
    141 H60         5.8260    4.1570    0.5130 h1        1 MOL      0.091119
    142 H61         2.8060    3.8100   -0.0380 hc        1 MOL      0.084678
    143 H62         3.6720    5.2660   -0.0730 hc        1 MOL      0.084678
    144 H63         2.9680    3.7930   -2.2300 hc        1 MOL      0.040729
    145 H64         4.6620    4.5220   -2.1080 hc        1 MOL      0.040729
    146 H65         3.8910    1.7000   -1.6330 h1        1 MOL      0.022325
    147 H66         5.3250    2.3100   -2.4980 h1        1 MOL      0.022325
    148 N13         4.1970    1.8480    2.1790 n         1 MOL      0.044243
    149 C50         3.7640    1.2980    3.4570 c3        1 MOL     -0.292860
    150 C51         5.0520    0.9820    4.3700 c         1 MOL      0.524707
    151 O21         5.0220    1.1280    5.5980 o         1 MOL     -0.552209
    152 C52         2.8930    0.0100    3.2410 c3        1 MOL      0.220834
    153 C53         1.7080    0.3290    2.2710 c3        1 MOL     -0.287184
    154 C54         1.9620    0.0730    0.8280 c         1 MOL      0.496579
    155 O22         0.9600   -0.0750    0.1580 o         1 MOL     -0.546099
    156 O23         3.1120    0.1260    0.3140 o         1 MOL     -0.546099
    157 H67         4.0030    1.2250    1.4170 hn        1 MOL      0.160277
    158 H68         3.1300    2.0010    3.9940 h1        1 MOL      0.135476
    159 H69         2.5270   -0.2570    4.2290 hc        1 MOL     -0.048653
    160 H70         3.4360   -0.8490    2.8630 hc        1 MOL     -0.048653
    161 H71         1.4070    1.3720    2.3290 hc        1 MOL      0.087545
    162 H72         0.9000   -0.3170    2.6190 hc        1 MOL      0.087545
    163 N14         6.1870    0.5620    3.7060 n         1 MOL     -0.177104
    164 C55         7.4660    0.3840    4.3610 c3        1 MOL     -0.317295
    165 H73         7.7390    1.3020    4.8810 h1        1 MOL      0.107478
    166 H74         7.3960   -0.4320    5.0800 h1        1 MOL      0.107478
    167 H75         8.2260    0.1490    3.6160 h1        1 MOL      0.107478
    168 H76         6.2260    0.4960    2.6940 hn        1 MOL      0.194588
    169 Ca1        -1.0010   -0.4780   -1.4590 Ca        1 MOL      1.695253
    170 O24         0.9910    1.5530   -1.8350 oh        1 MOL     -0.910228
    171 H77         1.1320    1.2290   -0.9420 ho        1 MOL      0.446803
    172 H78         1.7350    1.1920   -2.3290 ho        1 MOL      0.446803
    173 O25        -2.9010   -2.1990   -2.3690 oh        1 MOL     -0.910228
    174 H79        -3.1070   -2.1830   -3.3130 ho        1 MOL      0.446803
    175 H80        -3.3270   -2.9860   -2.0430 ho        1 MOL      0.446803
    176 O26        -1.6060    1.8180   -0.1970 oh        1 MOL     -0.910228
    177 H81        -1.3880    2.7000    0.0920 ho        1 MOL      0.446803
    178 H82        -2.5520    1.8110   -0.2720 ho        1 MOL      0.446803
    179 O27        -2.3740   -1.1300    0.8180 oh        1 MOL     -0.910228
    180 H83        -3.2950   -1.3130    0.9920 ho        1 MOL      0.446803
    181 H84        -1.8950   -1.7060    1.4090 ho        1 MOL      0.446803
@<TRIPOS>BOND
     1    1    2 1   
     2    1    4 1   
     3    1    5 1   
     4    1    6 1   
     5    2    3 2   
     6    2    7 1   
     7    7    8 1   
     8    7   15 1   
     9    8    9 1   
    10    8   11 1   
    11    8   16 1   
    12    9   10 2   
    13    9   19 1   
    14   11   12 1   
    15   11   17 1   
    16   11   18 1   
    17   12   13 1   
    18   12   14 1   
    19   19   20 1   
    20   19   24 1   
    21   20   21 1   
    22   20   23 1   
    23   20   25 1   
    24   21   22 2   
    25   21   29 1   
    26   23   26 1   
    27   23   27 1   
    28   23   28 1   
    29   29   30 1   
    30   29   37 1   
    31   30   31 1   
    32   30   33 1   
    33   30   38 1   
    34   31   32 2   
    35   31   41 1   
    36   33   34 1   
    37   33   39 1   
    38   33   40 1   
    39   34   35 1   
    40   34   36 1   
    41   41   42 1   
    42   41   45 1   
    43   42   43 1   
    44   42   46 1   
    45   42   47 1   
    46   43   44 2   
    47   43   48 1   
    48   48   49 1   
    49   48   56 1   
    50   49   50 1   
    51   49   52 1   
    52   49   57 1   
    53   50   51 2   
    54   50   62 1   
    55   52   53 1   
    56   52   58 1   
    57   52   59 1   
    58   53   54 1   
    59   53   55 2   
    60   54   60 1   
    61   54   61 1   
    62   62   63 1   
    63   62   66 1   
    64   63   64 1   
    65   63   67 1   
    66   63   68 1   
    67   64   65 2   
    68   64   69 1   
    69   69   70 1   
    70   69   76 1   
    71   70   71 1   
    72   70   73 1   
    73   70   77 1   
    74   71   72 2   
    75   71   83 1   
    76   73   74 1   
    77   73   75 1   
    78   73   78 1   
    79   74   80 1   
    80   74   81 1   
    81   74   82 1   
    82   75   79 1   
    83   83   84 1   
    84   83   91 1   
    85   84   85 1   
    86   84   87 1   
    87   84   92 1   
    88   85   86 2   
    89   85  102 1   
    90   87   88 1   
    91   87   89 1   
    92   87   93 1   
    93   88   90 1   
    94   88   94 1   
    95   88   95 1   
    96   89   96 1   
    97   89   97 1   
    98   89   98 1   
    99   90   99 1   
   100   90  100 1   
   101   90  101 1   
   102  102  103 1   
   103  102  110 1   
   104  103  104 1   
   105  103  106 1   
   106  103  111 1   
   107  104  105 2   
   108  104  114 1   
   109  106  107 1   
   110  106  112 1   
   111  106  113 1   
   112  107  108 1   
   113  107  109 1   
   114  114  115 1   
   115  114  125 1   
   116  115  116 1   
   117  115  118 1   
   118  115  126 1   
   119  116  117 2   
   120  116  134 1   
   121  118  119 1   
   122  118  127 1   
   123  118  128 1   
   124  119  120 ar  
   125  119  121 ar  
   126  120  122 ar  
   127  120  129 1   
   128  121  123 ar  
   129  121  130 1   
   130  122  124 ar  
   131  122  131 1   
   132  123  124 ar  
   133  123  132 1   
   134  124  133 1   
   135  134  135 1   
   136  134  140 1   
   137  135  136 1   
   138  135  138 1   
   139  135  141 1   
   140  136  137 2   
   141  136  148 1   
   142  138  139 1   
   143  138  142 1   
   144  138  143 1   
   145  139  140 1   
   146  139  144 1   
   147  139  145 1   
   148  140  146 1   
   149  140  147 1   
   150  148  149 1   
   151  148  157 1   
   152  149  150 1   
   153  149  152 1   
   154  149  158 1   
   155  150  151 2   
   156  150  163 1   
   157  152  153 1   
   158  152  159 1   
   159  152  160 1   
   160  153  154 1   
   161  153  161 1   
   162  153  162 1   
   163  154  155 1   
   164  154  156 1   
   165  163  164 1   
   166  163  168 1   
   167  164  165 1   
   168  164  166 1   
   169  164  167 1   
   170  170  171 1   
   171  170  172 1   
   172  173  174 1   
   173  173  175 1   
   174  176  177 1   
   175  176  178 1   
   176  179  180 1   
   177  179  181 1   
@<TRIPOS>SUBSTRUCTURE
     1 MOL         1 TEMP              0 ****  ****    0 ROOT
