@<TRIPOS>MOLECULE
MOL
  186   183     1     0     0
SMALL
resp


@<TRIPOS>ATOM
      1 C1        -12.4410    4.5850    3.9090 c3        1 MOL     -0.423119
      2 C2        -12.4300    3.6360    2.7160 c         1 MOL      0.659839
      3 O1        -12.9870    2.5110    2.7410 o         1 MOL     -0.625711
      4 H1        -13.1910    4.2560    4.6290 hc        1 MOL      0.116027
      5 H2        -11.4590    4.5860    4.3830 hc        1 MOL      0.116027
      6 H3        -12.6820    5.5930    3.5710 hc        1 MOL      0.116027
      7 N1        -11.8450    4.0340    1.5940 n         1 MOL     -0.239546
      8 C3        -11.5320    3.1170    0.5360 c3        1 MOL     -0.254027
      9 C4        -10.3060    2.2450    0.8850 c         1 MOL      0.737467
     10 O2         -9.2840    2.7450    1.4840 o         1 MOL     -0.735159
     11 C5        -11.2150    3.9160   -0.7200 c3        1 MOL     -0.395300
     12 C6        -10.3930    5.2380   -0.5280 c         1 MOL      0.847252
     13 O3         -9.7320    5.4180    0.5090 o         1 MOL     -0.704870
     14 O4        -10.3940    6.0640   -1.4690 o         1 MOL     -0.704870
     15 H4        -11.2930    4.8670    1.4410 hn        1 MOL      0.159049
     16 H5        -12.3910    2.4770    0.3770 h1        1 MOL      0.132955
     17 H6        -12.1540    4.2240   -1.1800 hc        1 MOL      0.133617
     18 H7        -10.6370    3.3100   -1.4250 hc        1 MOL      0.133617
     19 N2        -10.4140    0.9780    0.4920 n         1 MOL     -0.372801
     20 C7         -9.6170   -0.1670    0.9790 c3        1 MOL     -0.030633
     21 C8         -8.1230   -0.1410    0.4980 c         1 MOL      0.424376
     22 O5         -7.2290   -0.6620    1.1050 o         1 MOL     -0.465703
     23 C9        -10.2100   -1.4610    0.4490 c3        1 MOL     -0.080493
     24 C10       -11.6630   -1.8320    0.8500 c3        1 MOL      0.151002
     25 C11       -12.1120   -3.0310    0.0090 c3        1 MOL      0.004164
     26 C12       -13.3360   -3.5380    0.6560 c3        1 MOL     -0.042925
     27 N3        -14.0530   -4.5660   -0.1300 n4        1 MOL     -0.201209
     28 H8        -11.1630    0.7370   -0.1330 hn        1 MOL      0.264032
     29 H9         -9.5040   -0.3640    2.0480 h1        1 MOL      0.113484
     30 H10        -9.4480   -2.1990    0.6850 hc        1 MOL      0.018154
     31 H11       -10.2330   -1.4210   -0.6490 hc        1 MOL      0.018154
     32 H12       -12.3370   -0.9860    0.7010 hc        1 MOL     -0.019574
     33 H13       -11.7420   -2.0230    1.9200 hc        1 MOL     -0.019574
     34 H14       -11.3290   -3.7850   -0.0100 hc        1 MOL      0.028411
     35 H15       -12.3540   -2.7530   -1.0120 hc        1 MOL      0.028411
     36 H16       -14.0190   -2.7360    0.9350 hx        1 MOL      0.099317
     37 H17       -12.8980   -4.0200    1.5300 hx        1 MOL      0.099317
     38 H18       -14.0230   -4.3700   -1.1230 hn        1 MOL      0.250654
     39 H19       -13.6840   -5.5050   -0.0730 hn        1 MOL      0.250654
     40 H20       -15.0390   -4.5960    0.0500 hn        1 MOL      0.250654
     41 N4         -7.8580    0.5770   -0.5740 n         1 MOL     -0.115794
     42 C13        -6.5600    0.6900   -1.2570 c3        1 MOL     -0.313476
     43 C14        -5.4580    1.2980   -0.3940 c         1 MOL      0.619714
     44 O6         -5.7480    2.1560    0.4600 o         1 MOL     -0.703051
     45 C15        -6.7050    1.4630   -2.5870 c3        1 MOL     -0.452663
     46 C16        -7.6200    2.6300   -2.5170 c         1 MOL      0.531638
     47 O7         -8.0140    3.2520   -3.5760 o         1 MOL     -0.612764
     48 O8         -8.0260    3.1570   -1.4440 o         1 MOL     -0.612764
     49 H21        -8.6420    1.1040   -0.9360 hn        1 MOL      0.249188
     50 H22        -6.1350   -0.2580   -1.5800 h1        1 MOL      0.184809
     51 H23        -7.1710    0.7940   -3.2990 hc        1 MOL      0.189935
     52 H24        -5.7370    1.8050   -2.9530 hc        1 MOL      0.189935
     53 N5         -4.1270    0.8570   -0.4800 n         1 MOL     -0.438150
     54 C17        -3.5920   -0.0450   -1.4450 c3        1 MOL      0.001479
     55 C18        -3.6570   -1.5790   -1.0190 c         1 MOL      0.590454
     56 O9         -3.4490   -2.0110    0.1620 o         1 MOL     -0.550774
     57 H25        -3.4740    1.1970    0.2110 hn        1 MOL      0.334431
     58 H26        -2.5850    0.1660   -1.8130 h1        1 MOL      0.070641
     59 H27        -4.1570    0.0720   -2.3730 h1        1 MOL      0.070641
     60 N6         -3.9850   -2.3630   -2.0120 n         1 MOL     -0.533686
     61 C19        -4.1230   -3.8360   -2.0020 c3        1 MOL      0.155677
     62 C20        -2.7630   -4.4620   -1.8900 c         1 MOL      0.480968
     63 O10        -1.7460   -4.1070   -2.5470 o         1 MOL     -0.524143
     64 C21        -4.8130   -4.2870   -3.3160 c3        1 MOL     -0.268037
     65 C22        -4.9510   -5.8010   -3.4270 c         1 MOL      0.695010
     66 O11        -5.5420   -6.4230   -2.5460 o         1 MOL     -0.657452
     67 O12        -4.3920   -6.4160   -4.3760 o         1 MOL     -0.657452
     68 H28        -3.9590   -1.9540   -2.9280 hn        1 MOL      0.284215
     69 H29        -4.7670   -4.1280   -1.1660 h1        1 MOL      0.047894
     70 H30        -4.2470   -3.9310   -4.1770 hc        1 MOL      0.059471
     71 H31        -5.7910   -3.8010   -3.2140 hc        1 MOL      0.059471
     72 N7         -2.7430   -5.5180   -1.0800 n         1 MOL     -0.191362
     73 C23        -1.7190   -6.6130   -0.9560 c3        1 MOL     -0.255588
     74 C24        -0.5430   -6.3270   -0.0300 c         1 MOL      0.460299
     75 O13         0.4050   -7.1450    0.0320 o         1 MOL     -0.565104
     76 H32        -3.6520   -5.7630   -0.7170 hn        1 MOL      0.195476
     77 H33        -1.2700   -6.7870   -1.9390 h1        1 MOL      0.160943
     78 H34        -2.1720   -7.5130   -0.5300 h1        1 MOL      0.160943
     79 N8         -0.4310   -5.1400    0.5060 n         1 MOL     -0.153116
     80 C25         0.7890   -4.6340    1.1540 c3        1 MOL     -0.054522
     81 C26         1.2420   -3.1950    0.7390 c         1 MOL      0.561805
     82 O14         0.4080   -2.2930    0.4160 o         1 MOL     -0.514168
     83 C27         0.7530   -4.7790    2.6990 c3        1 MOL      0.391604
     84 C28        -0.4190   -4.1170    3.2680 c3        1 MOL     -0.316149
     85 O15         0.7510   -6.1200    3.0960 oh        1 MOL     -0.644342
     86 H35        -1.2690   -4.5870    0.3970 hn        1 MOL      0.111481
     87 H36         1.6400   -5.2570    0.8710 h1        1 MOL      0.068820
     88 H37         1.6580   -4.2900    3.0410 h1        1 MOL      0.023367
     89 H38        -0.1350   -6.4150    2.8970 ho        1 MOL      0.401753
     90 H39        -0.2400   -3.9440    4.3370 hc        1 MOL      0.070256
     91 H40        -0.5020   -3.1250    2.8300 hc        1 MOL      0.070256
     92 H41        -1.2570   -4.7920    3.1290 hc        1 MOL      0.070256
     93 N9          2.5250   -2.8980    0.8090 n         1 MOL     -0.542091
     94 C29         3.0640   -1.5660    0.6050 c3        1 MOL     -0.038045
     95 C30         4.4540   -1.5590    0.0180 c         1 MOL      0.625960
     96 O16         4.7600   -0.7110   -0.8210 o         1 MOL     -0.549912
     97 C31         3.1310   -0.7780    1.9580 c3        1 MOL      0.116574
     98 C32         2.0410   -1.1460    3.0070 c3        1 MOL     -0.038599
     99 C33         3.0100    0.7710    1.6490 c3        1 MOL     -0.212200
    100 C34         2.3630   -0.6000    4.4120 c3        1 MOL     -0.336432
    101 H42         3.1860   -3.5840    1.1500 hn        1 MOL      0.281628
    102 H43         2.3580   -1.0390   -0.0330 h1        1 MOL      0.117645
    103 H44         4.1390   -0.9160    2.3610 hc        1 MOL     -0.000860
    104 H45         2.0150   -2.2230    3.1460 hc        1 MOL      0.073579
    105 H46         1.0490   -0.7800    2.7170 hc        1 MOL      0.073579
    106 H47         3.7040    1.1000    0.8820 hc        1 MOL      0.060239
    107 H48         1.9960    0.9560    1.2740 hc        1 MOL      0.060239
    108 H49         3.1510    1.3340    2.5710 hc        1 MOL      0.060239
    109 H50         1.9030   -1.2230    5.1760 hc        1 MOL      0.083520
    110 H51         3.4410   -0.6440    4.5560 hc        1 MOL      0.083520
    111 H52         2.1570    0.4690    4.4760 hc        1 MOL      0.083520
    112 N10         5.3390   -2.3960    0.4500 n         1 MOL     -0.476070
    113 C35         6.6830   -2.4680   -0.1310 c3        1 MOL      0.029471
    114 C36         7.7480   -2.5470    0.9830 c         1 MOL      0.627466
    115 O17         7.5290   -2.8690    2.1430 o         1 MOL     -0.542794
    116 C37         6.8600   -3.5920   -1.1040 c3        1 MOL      0.368637
    117 C38         6.0430   -3.3840   -2.4020 c3        1 MOL     -0.372646
    118 O18         8.2120   -3.8450   -1.4860 oh        1 MOL     -0.718174
    119 H53         5.0240   -3.1080    1.0920 hn        1 MOL      0.257246
    120 H54         6.9650   -1.5720   -0.6830 h1        1 MOL      0.113078
    121 H55         6.3710   -4.4700   -0.6840 h1        1 MOL     -0.007647
    122 H56         8.2950   -4.5750   -2.1030 ho        1 MOL      0.441805
    123 H57         5.9640   -4.3360   -2.9400 hc        1 MOL      0.107797
    124 H58         5.0430   -3.0270   -2.1580 hc        1 MOL      0.107797
    125 H59         6.5210   -2.6070   -2.9810 hc        1 MOL      0.107797
    126 N11         8.9670   -2.1670    0.6320 n         1 MOL     -0.690775
    127 C39        10.0800   -1.9740    1.5550 c3        1 MOL      0.197320
    128 C40        10.6120   -0.5730    1.6890 c         1 MOL      0.571898
    129 O19        11.0660   -0.2190    2.7880 o         1 MOL     -0.582808
    130 C41        11.2570   -2.9490    1.2150 c3        1 MOL      0.275244
    131 C42        12.4400   -2.9590    2.2430 c3        1 MOL     -0.351645
    132 O20        11.8880   -2.6590   -0.0860 oh        1 MOL     -0.642284
    133 H60         9.1450   -2.0470   -0.3530 hn        1 MOL      0.356963
    134 H61         9.7180   -2.3360    2.5190 h1        1 MOL      0.082585
    135 H62        10.7860   -3.9350    1.1960 h1        1 MOL      0.033131
    136 H63        12.1420   -3.4960   -0.4620 ho        1 MOL      0.391884
    137 H64        12.9170   -1.9830    2.2550 hc        1 MOL      0.087911
    138 H65        11.9060   -3.1830    3.1700 hc        1 MOL      0.087911
    139 H66        13.1730   -3.7400    2.0740 hc        1 MOL      0.087911
    140 N12        10.3880    0.1780    0.6360 n         1 MOL     -0.325204
    141 C43        10.6610    1.6030    0.5430 c3        1 MOL     -0.002489
    142 C44         9.5240    2.3260   -0.2170 c         1 MOL      0.454920
    143 O21         8.8230    1.7700   -1.0590 o         1 MOL     -0.465799
    144 C45        12.0580    1.8400   -0.0120 c3        1 MOL     -0.185373
    145 C46        12.2970    1.4560   -1.4460 c3        1 MOL      0.000172
    146 C47        13.7700    1.6740   -1.8380 c3        1 MOL     -0.064029
    147 C48        14.7570    1.0860   -0.8420 c3        1 MOL      0.110339
    148 N13        16.1870    1.1790   -1.2800 n4        1 MOL     -0.366107
    149 H67        10.0000   -0.2040   -0.2120 hn        1 MOL      0.197948
    150 H68        10.6160    2.0800    1.5280 h1        1 MOL      0.093693
    151 H69        12.7600    1.2380    0.5640 hc        1 MOL      0.071613
    152 H70        12.3970    2.8590    0.1800 hc        1 MOL      0.071613
    153 H71        11.6680    2.0420   -2.1170 hc        1 MOL      0.064187
    154 H72        12.1480    0.3850   -1.5770 hc        1 MOL      0.064187
    155 H73        14.0820    2.7140   -1.9070 hc        1 MOL      0.029390
    156 H74        13.8390    1.2680   -2.8480 hc        1 MOL      0.029390
    157 H75        14.4300    0.0550   -0.6750 hx        1 MOL      0.061776
    158 H76        14.6540    1.6730    0.0690 hx        1 MOL      0.061776
    159 H77        16.4840    2.1420   -1.3690 hn        1 MOL      0.272444
    160 H78        16.7510    0.6880   -0.6120 hn        1 MOL      0.272444
    161 H79        16.1980    0.7110   -2.1810 hn        1 MOL      0.272444
    162 N14         9.4650    3.6820   -0.0760 n         1 MOL     -0.400780
    163 C49         8.5680    4.5310   -0.8680 c3        1 MOL      0.200437
    164 C50         7.0980    4.2470   -0.7600 c         1 MOL      0.326497
    165 O22         6.4610    3.9980   -1.8080 o         1 MOL     -0.509581
    166 C51         8.9410    6.0320   -0.5740 c3        1 MOL     -0.025033
    167 C52         8.0670    7.0010   -1.3760 c3        1 MOL     -0.154640
    168 C53         8.4980    8.4510   -1.0770 c         1 MOL      0.701945
    169 O23         7.6150    9.2740   -0.7460 o         1 MOL     -0.649288
    170 O24         9.6680    8.7580   -1.0680 o         1 MOL     -0.649288
    171 H80        10.1560    4.0810    0.5510 hn        1 MOL      0.226783
    172 H81         8.7890    4.2840   -1.9080 h1        1 MOL      0.048939
    173 H82         9.9860    6.1600   -0.8440 hc        1 MOL      0.012517
    174 H83         8.7090    6.1310    0.4810 hc        1 MOL      0.012517
    175 H84         7.0130    6.7930   -1.1800 hc        1 MOL      0.029913
    176 H85         8.1410    6.8020   -2.4400 hc        1 MOL      0.029913
    177 N15         6.4180    4.2120    0.4040 n         1 MOL     -0.230243
    178 C54         6.7640    4.4840    1.8380 c3        1 MOL     -0.188217
    179 H86         5.9280    4.1950    2.4750 h1        1 MOL      0.092567
    180 H87         7.6470    3.9080    2.1150 h1        1 MOL      0.092567
    181 H88         6.9670    5.5480    1.9670 h1        1 MOL      0.092567
    182 H89         5.4430    4.0280    0.2610 hn        1 MOL      0.252988
    183 Ca1        -7.2610    4.2660    0.7030 Ca        1 MOL      1.790433
    184 O25        -7.5570    6.8170   -1.0740 oh        1 MOL     -0.987157
    185 H90        -8.3500    7.2970   -1.2820 ho        1 MOL      0.473891
    186 H91        -7.2110    6.5390   -1.9220 ho        1 MOL      0.473891
@<TRIPOS>BOND
     1    1    2 1   
     2    1    4 1   
     3    1    5 1   
     4    1    6 1   
     5    2    3 2   
     6    2    7 1   
     7    7    8 1   
     8    7   15 1   
     9    8    9 1   
    10    8   11 1   
    11    8   16 1   
    12    9   10 2   
    13    9   19 1   
    14   11   12 1   
    15   11   17 1   
    16   11   18 1   
    17   12   13 1   
    18   12   14 1   
    19   19   20 1   
    20   19   28 1   
    21   20   21 1   
    22   20   23 1   
    23   20   29 1   
    24   21   22 2   
    25   21   41 1   
    26   23   24 1   
    27   23   30 1   
    28   23   31 1   
    29   24   25 1   
    30   24   32 1   
    31   24   33 1   
    32   25   26 1   
    33   25   34 1   
    34   25   35 1   
    35   26   27 1   
    36   26   36 1   
    37   26   37 1   
    38   27   38 1   
    39   27   39 1   
    40   27   40 1   
    41   41   42 1   
    42   41   49 1   
    43   42   43 1   
    44   42   45 1   
    45   42   50 1   
    46   43   44 2   
    47   43   53 1   
    48   45   46 1   
    49   45   51 1   
    50   45   52 1   
    51   46   47 1   
    52   46   48 1   
    53   53   54 1   
    54   53   57 1   
    55   54   55 1   
    56   54   58 1   
    57   54   59 1   
    58   55   56 2   
    59   55   60 1   
    60   60   61 1   
    61   60   68 1   
    62   61   62 1   
    63   61   64 1   
    64   61   69 1   
    65   62   63 2   
    66   62   72 1   
    67   64   65 1   
    68   64   70 1   
    69   64   71 1   
    70   65   66 1   
    71   65   67 1   
    72   72   73 1   
    73   72   76 1   
    74   73   74 1   
    75   73   77 1   
    76   73   78 1   
    77   74   75 2   
    78   74   79 1   
    79   79   80 1   
    80   79   86 1   
    81   80   81 1   
    82   80   83 1   
    83   80   87 1   
    84   81   82 2   
    85   81   93 1   
    86   83   84 1   
    87   83   85 1   
    88   83   88 1   
    89   84   90 1   
    90   84   91 1   
    91   84   92 1   
    92   85   89 1   
    93   93   94 1   
    94   93  101 1   
    95   94   95 1   
    96   94   97 1   
    97   94  102 1   
    98   95   96 2   
    99   95  112 1   
   100   97   98 1   
   101   97   99 1   
   102   97  103 1   
   103   98  100 1   
   104   98  104 1   
   105   98  105 1   
   106   99  106 1   
   107   99  107 1   
   108   99  108 1   
   109  100  109 1   
   110  100  110 1   
   111  100  111 1   
   112  112  113 1   
   113  112  119 1   
   114  113  114 1   
   115  113  116 1   
   116  113  120 1   
   117  114  115 2   
   118  114  126 1   
   119  116  117 1   
   120  116  118 1   
   121  116  121 1   
   122  117  123 1   
   123  117  124 1   
   124  117  125 1   
   125  118  122 1   
   126  126  127 1   
   127  126  133 1   
   128  127  128 1   
   129  127  130 1   
   130  127  134 1   
   131  128  129 2   
   132  128  140 1   
   133  130  131 1   
   134  130  132 1   
   135  130  135 1   
   136  131  137 1   
   137  131  138 1   
   138  131  139 1   
   139  132  136 1   
   140  140  141 1   
   141  140  149 1   
   142  141  142 1   
   143  141  144 1   
   144  141  150 1   
   145  142  143 2   
   146  142  162 1   
   147  144  145 1   
   148  144  151 1   
   149  144  152 1   
   150  145  146 1   
   151  145  153 1   
   152  145  154 1   
   153  146  147 1   
   154  146  155 1   
   155  146  156 1   
   156  147  148 1   
   157  147  157 1   
   158  147  158 1   
   159  148  159 1   
   160  148  160 1   
   161  148  161 1   
   162  162  163 1   
   163  162  171 1   
   164  163  164 1   
   165  163  166 1   
   166  163  172 1   
   167  164  165 2   
   168  164  177 1   
   169  166  167 1   
   170  166  173 1   
   171  166  174 1   
   172  167  168 1   
   173  167  175 1   
   174  167  176 1   
   175  168  169 1   
   176  168  170 1   
   177  177  178 1   
   178  177  182 1   
   179  178  179 1   
   180  178  180 1   
   181  178  181 1   
   182  184  185 1   
   183  184  186 1   
@<TRIPOS>SUBSTRUCTURE
     1 MOL         1 TEMP              0 ****  ****    0 ROOT
