@<TRIPOS>MOLECULE
MOL
  181   177     1     0     0
SMALL
resp


@<TRIPOS>ATOM
      1 C1         -3.3530   -2.3080   -4.2240 c3        1 MOL     -0.216520
      2 C2         -4.7090   -1.5530   -3.9400 c         1 MOL      0.620975
      3 O1         -4.7460   -0.3130   -3.7530 o         1 MOL     -0.580305
      4 H1         -3.3250   -2.6220   -5.2670 hc        1 MOL      0.045856
      5 H2         -2.5160   -1.6400   -4.0230 hc        1 MOL      0.045856
      6 H3         -3.2830   -3.1840   -3.5790 hc        1 MOL      0.045856
      7 N1         -5.7360   -2.3570   -3.8290 n         1 MOL     -0.461037
      8 C3         -7.0600   -1.8100   -3.4520 c3        1 MOL      0.016701
      9 C4         -7.2180   -1.3920   -1.9460 c         1 MOL      0.639705
     10 O2         -7.1100   -2.1740   -0.9850 o         1 MOL     -0.560436
     11 C5         -8.1050   -2.8070   -3.7210 c3        1 MOL     -0.195901
     12 C6         -9.5500   -2.2260   -3.5070 c         1 MOL      0.681091
     13 O3        -10.3050   -2.8440   -2.7210 o         1 MOL     -0.718313
     14 O4         -9.8480   -1.1860   -4.1240 o         1 MOL     -0.718313
     15 H4         -5.6640   -3.3560   -3.9630 hn        1 MOL      0.282283
     16 H5         -7.2270   -1.0030   -4.1610 h1        1 MOL      0.061387
     17 H6         -7.9540   -3.7280   -3.1710 hc        1 MOL      0.020441
     18 H7         -8.0190   -3.1040   -4.7720 hc        1 MOL      0.020441
     19 N2         -7.6190   -0.1140   -1.7670 n         1 MOL     -0.380134
     20 C7         -7.9510    0.4360   -0.4460 c3        1 MOL      0.185794
     21 C8         -6.6810    0.5100    0.3550 c         1 MOL      0.621714
     22 O5         -5.8140    1.3610    0.0620 o         1 MOL     -0.556147
     23 C9         -8.6350    1.7750   -0.6840 c3        1 MOL     -0.460698
     24 H8         -7.6810    0.5330   -2.5370 hn        1 MOL      0.259661
     25 H9         -8.6440   -0.2900   -0.0040 h1        1 MOL      0.050732
     26 H10        -9.5480    1.4360   -1.1790 hc        1 MOL      0.121205
     27 H11        -8.8210    2.2250    0.2940 hc        1 MOL      0.121205
     28 H12        -8.0710    2.4470   -1.3250 hc        1 MOL      0.121205
     29 N3         -6.5030   -0.4160    1.3250 n         1 MOL     -0.871334
     30 C10        -5.1970   -0.8010    1.8090 c3        1 MOL      0.630120
     31 C11        -4.6940    0.0610    2.9450 c         1 MOL      0.198050
     32 O6         -3.4930   -0.0390    3.3130 o         1 MOL     -0.422673
     33 C12        -5.2990   -2.2740    2.2760 c3        1 MOL     -0.340041
     34 C13        -3.8840   -2.8400    2.5370 c         1 MOL      0.781702
     35 O7         -2.9330   -2.5390    1.7850 o         1 MOL     -0.723756
     36 O8         -3.7540   -3.5960    3.5080 o         1 MOL     -0.723756
     37 H13        -7.2690   -1.0450    1.4710 hn        1 MOL      0.341095
     38 H14        -4.5060   -0.7900    0.9680 h1        1 MOL      0.041738
     39 H15        -5.6690   -2.8890    1.4550 hc        1 MOL      0.050853
     40 H16        -5.9580   -2.3000    3.1420 hc        1 MOL      0.050853
     41 N4         -5.5180    0.8710    3.5970 n         1 MOL     -0.125392
     42 C14        -5.2840    1.5920    4.8610 c3        1 MOL     -0.259354
     43 C15        -4.3590    2.8000    4.7920 c         1 MOL      0.564993
     44 O9         -4.5210    3.8020    5.4940 o         1 MOL     -0.568568
     45 H17        -6.4420    1.0150    3.2130 hn        1 MOL      0.224626
     46 H18        -4.8890    0.7970    5.4950 h1        1 MOL      0.104096
     47 H19        -6.2250    1.9370    5.2770 h1        1 MOL      0.104096
     48 N5         -3.4060    2.7590    3.8630 n         1 MOL     -0.283464
     49 C16        -2.4460    3.8510    3.6380 c3        1 MOL      0.151243
     50 C17        -2.2650    4.1170    2.1540 c         1 MOL      0.420235
     51 O10        -2.4390    3.1800    1.3450 o         1 MOL     -0.409695
     52 C18        -1.0920    3.5820    4.2550 c3        1 MOL     -0.187971
     53 C19        -1.2360    3.6100    5.7600 c         1 MOL      0.591451
     54 N6         -1.3580    2.4960    6.4230 n         1 MOL     -0.746180
     55 O11        -1.1530    4.6910    6.4270 o         1 MOL     -0.583771
     56 H20        -3.4210    1.9330    3.2690 hn        1 MOL      0.122249
     57 H21        -2.8770    4.7910    3.9850 h1        1 MOL      0.017704
     58 H22        -0.5150    4.4470    3.9470 hc        1 MOL      0.074948
     59 H23        -0.6270    2.6410    3.9630 hc        1 MOL      0.074948
     60 H24        -1.5720    1.6190    5.9740 hn        1 MOL      0.360877
     61 H25        -1.5040    2.6190    7.4120 hn        1 MOL      0.360877
     62 N7         -1.9690    5.3290    1.7830 n         1 MOL     -0.349887
     63 C20        -1.6220    5.8800    0.4520 c3        1 MOL     -0.291374
     64 C21        -0.0990    5.9680    0.1070 c         1 MOL      0.711705
     65 O12         0.6680    5.3190    0.7490 o         1 MOL     -0.491037
     66 H26        -1.9750    6.0720    2.4630 hn        1 MOL      0.301325
     67 H27        -1.7620    6.9540    0.4690 h1        1 MOL      0.121996
     68 H28        -2.0750    5.3320   -0.3770 h1        1 MOL      0.121996
     69 N8          0.2780    6.6990   -0.9730 n         1 MOL     -0.464286
     70 C22         1.6540    6.8780   -1.2600 c3        1 MOL     -0.442095
     71 C23         2.2960    5.6150   -1.8500 c         1 MOL      0.592646
     72 O13         3.5430    5.5500   -1.8480 o         1 MOL     -0.555094
     73 C24         1.8200    8.1350   -2.1020 c3        1 MOL      0.602524
     74 C25         1.0190    8.0180   -3.4800 c3        1 MOL     -0.529535
     75 O14         1.3870    9.2600   -1.4700 oh        1 MOL     -0.646416
     76 H29        -0.4310    7.0330   -1.6080 hn        1 MOL      0.270234
     77 H30         2.1940    7.0710   -0.3370 h1        1 MOL      0.174814
     78 H31         2.8570    8.2270   -2.4130 h1        1 MOL      0.018022
     79 H32         0.4840    9.0870   -1.1950 ho        1 MOL      0.396925
     80 H33        -0.0440    7.9740   -3.2480 hc        1 MOL      0.125818
     81 H34         1.2930    8.7650   -4.2240 hc        1 MOL      0.125818
     82 H35         1.3230    7.1340   -4.0300 hc        1 MOL      0.125818
     83 N9          1.5190    4.7800   -2.5520 n         1 MOL     -0.339663
     84 C26         2.0600    3.4300   -3.0910 c3        1 MOL     -0.034893
     85 C27         1.3790    2.2330   -2.3360 c         1 MOL      0.643650
     86 O15         0.2170    2.3340   -1.9810 o         1 MOL     -0.522513
     87 C28         1.8110    3.3100   -4.6310 c3        1 MOL      0.063867
     88 C29         2.4450    4.4600   -5.4270 c3        1 MOL      0.117725
     89 C30         2.3280    1.9600   -5.1310 c3        1 MOL     -0.181434
     90 C31         3.9100    4.5720   -5.1610 c3        1 MOL      0.002670
     91 H36         0.5370    4.9710   -2.7110 hn        1 MOL      0.252034
     92 H37         3.1390    3.3740   -2.9450 h1        1 MOL      0.060310
     93 H38         0.7350    3.3750   -4.7880 hc        1 MOL      0.021001
     94 H39         1.9510    5.3960   -5.1840 hc        1 MOL     -0.042564
     95 H40         2.4010    4.2990   -6.5080 hc        1 MOL     -0.042564
     96 H41         1.5700    1.2260   -4.8800 hc        1 MOL      0.047617
     97 H42         2.3090    1.8860   -6.2100 hc        1 MOL      0.047617
     98 H43         3.2700    1.7500   -4.6280 hc        1 MOL      0.047617
     99 H44         4.2980    5.4620   -5.6500 hc        1 MOL     -0.010752
    100 H45         4.1570    4.7200   -4.1060 hc        1 MOL     -0.010752
    101 H46         4.3960    3.7400   -5.6650 hc        1 MOL     -0.010752
    102 N10         2.0970    1.1970   -1.9770 n         1 MOL     -0.588716
    103 C32         1.6450    0.2040   -1.0070 c3        1 MOL      0.155439
    104 C33         2.8090   -0.2540   -0.0560 c         1 MOL      0.538194
    105 O16         2.8790   -1.3870    0.3590 o         1 MOL     -0.500220
    106 C34         0.9090   -0.9920   -1.7520 c3        1 MOL     -0.160175
    107 C35         0.1860   -2.0070   -0.9020 c         1 MOL      0.828333
    108 O17         0.0660   -3.1960   -1.3230 o         1 MOL     -0.790098
    109 O18        -0.2220   -1.6580    0.2390 o         1 MOL     -0.790098
    110 H47         3.0830    1.1550   -2.1970 hn        1 MOL      0.285680
    111 H48         0.9440    0.7620   -0.3910 h1        1 MOL      0.098140
    112 H49         1.4560   -1.5780   -2.4970 hc        1 MOL      0.070108
    113 H50         0.1630   -0.5000   -2.3740 hc        1 MOL      0.070108
    114 N11         3.7450    0.6540    0.2690 n         1 MOL     -0.534631
    115 C36         5.0340    0.4070    0.8300 c3        1 MOL      0.311837
    116 C37         5.8500   -0.7770    0.1480 c         1 MOL      0.311079
    117 O19         5.8930   -0.8770   -1.1200 o         1 MOL     -0.535044
    118 C38         5.7970    1.6740    0.7990 c3        1 MOL     -0.384990
    119 C39         7.1970    1.5460    1.3010 ca        1 MOL      0.152259
    120 C40         7.4750    1.9270    2.5760 ca        1 MOL     -0.179175
    121 C41         8.2170    0.9220    0.5660 ca        1 MOL     -0.179175
    122 C42         8.7810    1.6910    3.1510 ca        1 MOL     -0.125953
    123 C43         9.5190    0.6580    1.0810 ca        1 MOL     -0.125953
    124 C44         9.8200    1.0730    2.3880 ca        1 MOL     -0.106097
    125 H51         3.4660    1.6190    0.1240 hn        1 MOL      0.293219
    126 H52         4.8930    0.1700    1.8950 h1        1 MOL      0.006273
    127 H53         5.2770    2.4270    1.3880 hc        1 MOL      0.138983
    128 H54         5.9230    1.9930   -0.2330 hc        1 MOL      0.138983
    129 H55         6.6970    2.3030    3.2380 ha        1 MOL      0.127923
    130 H56         8.0390    0.6060   -0.4540 ha        1 MOL      0.127923
    131 H57         9.0200    2.0080    4.1520 ha        1 MOL      0.116311
    132 H58        10.2220    0.1970    0.4130 ha        1 MOL      0.116311
    133 H59        10.8130    0.9750    2.8100 ha        1 MOL      0.106156
    134 N12         6.3820   -1.6890    0.9130 n         1 MOL     -0.070312
    135 C45         7.0800   -2.9070    0.4580 c3        1 MOL      0.152838
    136 C46         6.3000   -3.8670   -0.4100 c         1 MOL      0.164811
    137 O20         6.9910   -4.7310   -0.9470 o         1 MOL     -0.493456
    138 C47         7.5000   -3.6600    1.7700 c3        1 MOL     -0.145519
    139 C48         7.5010   -2.6210    2.8970 c3        1 MOL     -0.052882
    140 C49         6.4260   -1.6780    2.4020 c3        1 MOL      0.069858
    141 H60         7.9330   -2.6140   -0.1620 h1        1 MOL      0.072126
    142 H61         6.7290   -4.3840    2.0430 hc        1 MOL      0.076409
    143 H62         8.4910   -4.1080    1.6640 hc        1 MOL      0.076409
    144 H63         7.2630   -2.9760    3.9070 hc        1 MOL      0.027445
    145 H64         8.4840   -2.1390    2.8790 hc        1 MOL      0.027445
    146 H65         5.4370   -1.8940    2.8140 h1        1 MOL      0.018438
    147 H66         6.7930   -0.6880    2.6600 h1        1 MOL      0.018438
    148 N13         4.9480   -3.7350   -0.5710 n         1 MOL     -0.048630
    149 C50         4.1430   -4.6680   -1.5260 c3        1 MOL     -0.076976
    150 C51         4.0210   -4.2930   -2.9610 c         1 MOL      0.468292
    151 O21         3.2760   -4.9200   -3.7120 o         1 MOL     -0.500111
    152 C52         2.8280   -5.0180   -0.8220 c3        1 MOL      0.077403
    153 C53         3.0030   -6.0020    0.2950 c3        1 MOL     -0.028199
    154 C54         1.7700   -6.5530    0.8990 c         1 MOL      0.709021
    155 O22         1.8110   -7.5220    1.7220 o         1 MOL     -0.758567
    156 O23         0.6550   -6.0880    0.5500 o         1 MOL     -0.758567
    157 H67         4.3670   -3.0260   -0.1630 hn        1 MOL      0.081152
    158 H68         4.6340   -5.6450   -1.5340 h1        1 MOL      0.079736
    159 H69         2.2150   -5.5160   -1.5720 hc        1 MOL      0.014128
    160 H70         2.3390   -4.1560   -0.3680 hc        1 MOL      0.014128
    161 H71         3.6810   -5.7090    1.0940 hc        1 MOL     -0.011337
    162 H72         3.4830   -6.9240   -0.0240 hc        1 MOL     -0.011337
    163 N14         4.6700   -3.1630   -3.3630 n         1 MOL     -0.334138
    164 C55         4.6890   -2.6950   -4.7420 c3        1 MOL     -0.082754
    165 H73         4.1170   -3.3820   -5.3660 h1        1 MOL      0.055303
    166 H74         4.2440   -1.7010   -4.7940 h1        1 MOL      0.055303
    167 H75         5.7180   -2.6530   -5.0980 h1        1 MOL      0.055303
    168 H76         4.9940   -2.5030   -2.6760 hn        1 MOL      0.281022
    169 Ca1        -0.8350   -4.0790    1.1240 Ca        1 MOL      1.747812
    170 O24        -2.5990   -5.8050    2.0580 oh        1 MOL     -0.841201
    171 H77        -3.0650   -6.6010    1.7870 ho        1 MOL      0.404825
    172 H78        -3.1520   -5.4380    2.7480 ho        1 MOL      0.404825
    173 O25        -0.4290   -4.5200    3.7130 oh        1 MOL     -0.841201
    174 H79        -0.4290   -4.2840    4.6390 ho        1 MOL      0.404825
    175 H80        -0.2540   -5.4690    3.7120 ho        1 MOL      0.404825
    176 O26        -2.8040   -4.3370   -0.5990 oh        1 MOL     -0.841201
    177 H81        -3.7540   -4.3650   -0.7300 ho        1 MOL      0.404825
    178 H82        -2.4490   -4.8640   -1.3140 ho        1 MOL      0.404825
    179 O27         1.6340   -3.3220    1.9410 oh        1 MOL     -0.841201
    180 H83         2.0180   -2.5330    1.5560 ho        1 MOL      0.404825
    181 H84         2.0250   -3.3770    2.8200 ho        1 MOL      0.404825
@<TRIPOS>BOND
     1    1    2 1   
     2    1    4 1   
     3    1    5 1   
     4    1    6 1   
     5    2    3 2   
     6    2    7 1   
     7    7    8 1   
     8    7   15 1   
     9    8    9 1   
    10    8   11 1   
    11    8   16 1   
    12    9   10 2   
    13    9   19 1   
    14   11   12 1   
    15   11   17 1   
    16   11   18 1   
    17   12   13 1   
    18   12   14 1   
    19   19   20 1   
    20   19   24 1   
    21   20   21 1   
    22   20   23 1   
    23   20   25 1   
    24   21   22 2   
    25   21   29 1   
    26   23   26 1   
    27   23   27 1   
    28   23   28 1   
    29   29   30 1   
    30   29   37 1   
    31   30   31 1   
    32   30   33 1   
    33   30   38 1   
    34   31   32 2   
    35   31   41 1   
    36   33   34 1   
    37   33   39 1   
    38   33   40 1   
    39   34   35 1   
    40   34   36 1   
    41   41   42 1   
    42   41   45 1   
    43   42   43 1   
    44   42   46 1   
    45   42   47 1   
    46   43   44 2   
    47   43   48 1   
    48   48   49 1   
    49   48   56 1   
    50   49   50 1   
    51   49   52 1   
    52   49   57 1   
    53   50   51 2   
    54   50   62 1   
    55   52   53 1   
    56   52   58 1   
    57   52   59 1   
    58   53   54 1   
    59   53   55 2   
    60   54   60 1   
    61   54   61 1   
    62   62   63 1   
    63   62   66 1   
    64   63   64 1   
    65   63   67 1   
    66   63   68 1   
    67   64   65 2   
    68   64   69 1   
    69   69   70 1   
    70   69   76 1   
    71   70   71 1   
    72   70   73 1   
    73   70   77 1   
    74   71   72 2   
    75   71   83 1   
    76   73   74 1   
    77   73   75 1   
    78   73   78 1   
    79   74   80 1   
    80   74   81 1   
    81   74   82 1   
    82   75   79 1   
    83   83   84 1   
    84   83   91 1   
    85   84   85 1   
    86   84   87 1   
    87   84   92 1   
    88   85   86 2   
    89   85  102 1   
    90   87   88 1   
    91   87   89 1   
    92   87   93 1   
    93   88   90 1   
    94   88   94 1   
    95   88   95 1   
    96   89   96 1   
    97   89   97 1   
    98   89   98 1   
    99   90   99 1   
   100   90  100 1   
   101   90  101 1   
   102  102  103 1   
   103  102  110 1   
   104  103  104 1   
   105  103  106 1   
   106  103  111 1   
   107  104  105 2   
   108  104  114 1   
   109  106  107 1   
   110  106  112 1   
   111  106  113 1   
   112  107  108 1   
   113  107  109 1   
   114  114  115 1   
   115  114  125 1   
   116  115  116 1   
   117  115  118 1   
   118  115  126 1   
   119  116  117 2   
   120  116  134 1   
   121  118  119 1   
   122  118  127 1   
   123  118  128 1   
   124  119  120 ar  
   125  119  121 ar  
   126  120  122 ar  
   127  120  129 1   
   128  121  123 ar  
   129  121  130 1   
   130  122  124 ar  
   131  122  131 1   
   132  123  124 ar  
   133  123  132 1   
   134  124  133 1   
   135  134  135 1   
   136  134  140 1   
   137  135  136 1   
   138  135  138 1   
   139  135  141 1   
   140  136  137 2   
   141  136  148 1   
   142  138  139 1   
   143  138  142 1   
   144  138  143 1   
   145  139  140 1   
   146  139  144 1   
   147  139  145 1   
   148  140  146 1   
   149  140  147 1   
   150  148  149 1   
   151  148  157 1   
   152  149  150 1   
   153  149  152 1   
   154  149  158 1   
   155  150  151 2   
   156  150  163 1   
   157  152  153 1   
   158  152  159 1   
   159  152  160 1   
   160  153  154 1   
   161  153  161 1   
   162  153  162 1   
   163  154  155 1   
   164  154  156 1   
   165  163  164 1   
   166  163  168 1   
   167  164  165 1   
   168  164  166 1   
   169  164  167 1   
   170  170  171 1   
   171  170  172 1   
   172  173  174 1   
   173  173  175 1   
   174  176  177 1   
   175  176  178 1   
   176  179  180 1   
   177  179  181 1   
@<TRIPOS>SUBSTRUCTURE
     1 MOL         1 TEMP              0 ****  ****    0 ROOT
